* NGSPICE file created from egd_top_wrapper.ext - technology: sky130A

* Black-box entry subcircuit for sky130_fd_sc_hd__tapvpwrvgnd_1 abstract view
.subckt sky130_fd_sc_hd__tapvpwrvgnd_1 VGND VPWR
.ends

* Black-box entry subcircuit for sky130_fd_sc_hd__decap_4 abstract view
.subckt sky130_fd_sc_hd__decap_4 VGND VNB VPB VPWR
.ends

* Black-box entry subcircuit for sky130_fd_sc_hd__decap_6 abstract view
.subckt sky130_fd_sc_hd__decap_6 VGND VNB VPB VPWR
.ends

* Black-box entry subcircuit for sky130_fd_sc_hd__fill_2 abstract view
.subckt sky130_fd_sc_hd__fill_2 VGND VNB VPB VPWR
.ends

* Black-box entry subcircuit for sky130_fd_sc_hd__dfxtp_2 abstract view
.subckt sky130_fd_sc_hd__dfxtp_2 CLK D VGND VNB VPB VPWR Q
.ends

* Black-box entry subcircuit for sky130_fd_sc_hd__clkbuf_4 abstract view
.subckt sky130_fd_sc_hd__clkbuf_4 A VGND VNB VPB VPWR X
.ends

* Black-box entry subcircuit for sky130_fd_sc_hd__dfxtp_1 abstract view
.subckt sky130_fd_sc_hd__dfxtp_1 CLK D VGND VNB VPB VPWR Q
.ends

* Black-box entry subcircuit for sky130_fd_sc_hd__o221a_1 abstract view
.subckt sky130_fd_sc_hd__o221a_1 A1 A2 B1 B2 C1 VGND VNB VPB VPWR X
.ends

* Black-box entry subcircuit for sky130_fd_sc_hd__nand2_1 abstract view
.subckt sky130_fd_sc_hd__nand2_1 A B VGND VNB VPB VPWR Y
.ends

* Black-box entry subcircuit for sky130_fd_sc_hd__or2_1 abstract view
.subckt sky130_fd_sc_hd__or2_1 A B VGND VNB VPB VPWR X
.ends

* Black-box entry subcircuit for sky130_fd_sc_hd__fill_1 abstract view
.subckt sky130_fd_sc_hd__fill_1 VGND VNB VPB VPWR
.ends

* Black-box entry subcircuit for sky130_ef_sc_hd__decap_12 abstract view
.subckt sky130_ef_sc_hd__decap_12 VGND VNB VPB VPWR
.ends

* Black-box entry subcircuit for sky130_fd_sc_hd__decap_8 abstract view
.subckt sky130_fd_sc_hd__decap_8 VGND VNB VPB VPWR
.ends

* Black-box entry subcircuit for sky130_fd_sc_hd__clkbuf_2 abstract view
.subckt sky130_fd_sc_hd__clkbuf_2 A VGND VNB VPB VPWR X
.ends

* Black-box entry subcircuit for sky130_fd_sc_hd__o21ai_1 abstract view
.subckt sky130_fd_sc_hd__o21ai_1 A1 A2 B1 VGND VNB VPB VPWR Y
.ends

* Black-box entry subcircuit for sky130_fd_sc_hd__nand2_2 abstract view
.subckt sky130_fd_sc_hd__nand2_2 A B VGND VNB VPB VPWR Y
.ends

* Black-box entry subcircuit for sky130_fd_sc_hd__o21a_1 abstract view
.subckt sky130_fd_sc_hd__o21a_1 A1 A2 B1 VGND VNB VPB VPWR X
.ends

* Black-box entry subcircuit for sky130_fd_sc_hd__o22a_1 abstract view
.subckt sky130_fd_sc_hd__o22a_1 A1 A2 B1 B2 VGND VNB VPB VPWR X
.ends

* Black-box entry subcircuit for sky130_fd_sc_hd__decap_3 abstract view
.subckt sky130_fd_sc_hd__decap_3 VGND VNB VPB VPWR
.ends

* Black-box entry subcircuit for sky130_fd_sc_hd__clkbuf_16 abstract view
.subckt sky130_fd_sc_hd__clkbuf_16 A VGND VNB VPB VPWR X
.ends

* Black-box entry subcircuit for sky130_fd_sc_hd__and3_1 abstract view
.subckt sky130_fd_sc_hd__and3_1 A B C VGND VNB VPB VPWR X
.ends

* Black-box entry subcircuit for sky130_fd_sc_hd__inv_2 abstract view
.subckt sky130_fd_sc_hd__inv_2 A VGND VNB VPB VPWR Y
.ends

* Black-box entry subcircuit for sky130_fd_sc_hd__o211a_1 abstract view
.subckt sky130_fd_sc_hd__o211a_1 A1 A2 B1 C1 VGND VNB VPB VPWR X
.ends

* Black-box entry subcircuit for sky130_fd_sc_hd__buf_1 abstract view
.subckt sky130_fd_sc_hd__buf_1 A VGND VNB VPB VPWR X
.ends

* Black-box entry subcircuit for sky130_fd_sc_hd__buf_2 abstract view
.subckt sky130_fd_sc_hd__buf_2 A VGND VNB VPB VPWR X
.ends

* Black-box entry subcircuit for sky130_fd_sc_hd__buf_4 abstract view
.subckt sky130_fd_sc_hd__buf_4 A VGND VNB VPB VPWR X
.ends

* Black-box entry subcircuit for sky130_fd_sc_hd__nand3_1 abstract view
.subckt sky130_fd_sc_hd__nand3_1 A B C VGND VNB VPB VPWR Y
.ends

* Black-box entry subcircuit for sky130_fd_sc_hd__a221oi_1 abstract view
.subckt sky130_fd_sc_hd__a221oi_1 A1 A2 B1 B2 C1 VGND VNB VPB VPWR Y
.ends

* Black-box entry subcircuit for sky130_fd_sc_hd__a22o_1 abstract view
.subckt sky130_fd_sc_hd__a22o_1 A1 A2 B1 B2 VGND VNB VPB VPWR X
.ends

* Black-box entry subcircuit for sky130_fd_sc_hd__o2111a_1 abstract view
.subckt sky130_fd_sc_hd__o2111a_1 A1 A2 B1 C1 D1 VGND VNB VPB VPWR X
.ends

* Black-box entry subcircuit for sky130_fd_sc_hd__and2_1 abstract view
.subckt sky130_fd_sc_hd__and2_1 A B VGND VNB VPB VPWR X
.ends

* Black-box entry subcircuit for sky130_fd_sc_hd__nor2_2 abstract view
.subckt sky130_fd_sc_hd__nor2_2 A B VGND VNB VPB VPWR Y
.ends

* Black-box entry subcircuit for sky130_fd_sc_hd__clkinv_2 abstract view
.subckt sky130_fd_sc_hd__clkinv_2 A VGND VNB VPB VPWR Y
.ends

* Black-box entry subcircuit for sky130_fd_sc_hd__nor2_1 abstract view
.subckt sky130_fd_sc_hd__nor2_1 A B VGND VNB VPB VPWR Y
.ends

* Black-box entry subcircuit for sky130_fd_sc_hd__a21o_1 abstract view
.subckt sky130_fd_sc_hd__a21o_1 A1 A2 B1 VGND VNB VPB VPWR X
.ends

* Black-box entry subcircuit for sky130_fd_sc_hd__and3_2 abstract view
.subckt sky130_fd_sc_hd__and3_2 A B C VGND VNB VPB VPWR X
.ends

* Black-box entry subcircuit for sky130_fd_sc_hd__o2111ai_1 abstract view
.subckt sky130_fd_sc_hd__o2111ai_1 A1 A2 B1 C1 D1 VGND VNB VPB VPWR Y
.ends

* Black-box entry subcircuit for sky130_fd_sc_hd__diode_2 abstract view
.subckt sky130_fd_sc_hd__diode_2 DIODE VGND VNB VPB VPWR
.ends

* Black-box entry subcircuit for sky130_fd_sc_hd__dfxtp_4 abstract view
.subckt sky130_fd_sc_hd__dfxtp_4 CLK D VGND VNB VPB VPWR Q
.ends

* Black-box entry subcircuit for sky130_fd_sc_hd__a221oi_2 abstract view
.subckt sky130_fd_sc_hd__a221oi_2 A1 A2 B1 B2 C1 VGND VNB VPB VPWR Y
.ends

* Black-box entry subcircuit for sky130_fd_sc_hd__clkinv_4 abstract view
.subckt sky130_fd_sc_hd__clkinv_4 A VGND VNB VPB VPWR Y
.ends

* Black-box entry subcircuit for sky130_fd_sc_hd__buf_12 abstract view
.subckt sky130_fd_sc_hd__buf_12 A VGND VNB VPB VPWR X
.ends

* Black-box entry subcircuit for sky130_fd_sc_hd__a21oi_1 abstract view
.subckt sky130_fd_sc_hd__a21oi_1 A1 A2 B1 VGND VNB VPB VPWR Y
.ends

* Black-box entry subcircuit for sky130_fd_sc_hd__or3_2 abstract view
.subckt sky130_fd_sc_hd__or3_2 A B C VGND VNB VPB VPWR X
.ends

* Black-box entry subcircuit for sky130_fd_sc_hd__and4_1 abstract view
.subckt sky130_fd_sc_hd__and4_1 A B C D VGND VNB VPB VPWR X
.ends

* Black-box entry subcircuit for sky130_fd_sc_hd__a31o_1 abstract view
.subckt sky130_fd_sc_hd__a31o_1 A1 A2 A3 B1 VGND VNB VPB VPWR X
.ends

* Black-box entry subcircuit for sky130_fd_sc_hd__xor2_4 abstract view
.subckt sky130_fd_sc_hd__xor2_4 A B VGND VNB VPB VPWR X
.ends

* Black-box entry subcircuit for sky130_fd_sc_hd__a32o_1 abstract view
.subckt sky130_fd_sc_hd__a32o_1 A1 A2 A3 B1 B2 VGND VNB VPB VPWR X
.ends

* Black-box entry subcircuit for sky130_fd_sc_hd__buf_6 abstract view
.subckt sky130_fd_sc_hd__buf_6 A VGND VNB VPB VPWR X
.ends

* Black-box entry subcircuit for sky130_fd_sc_hd__clkbuf_1 abstract view
.subckt sky130_fd_sc_hd__clkbuf_1 A VGND VNB VPB VPWR X
.ends

* Black-box entry subcircuit for sky130_fd_sc_hd__a211oi_1 abstract view
.subckt sky130_fd_sc_hd__a211oi_1 A1 A2 B1 C1 VGND VNB VPB VPWR Y
.ends

* Black-box entry subcircuit for sky130_fd_sc_hd__nand2_4 abstract view
.subckt sky130_fd_sc_hd__nand2_4 A B VGND VNB VPB VPWR Y
.ends

* Black-box entry subcircuit for sky130_fd_sc_hd__xnor2_4 abstract view
.subckt sky130_fd_sc_hd__xnor2_4 A B VGND VNB VPB VPWR Y
.ends

* Black-box entry subcircuit for sky130_fd_sc_hd__a2bb2o_1 abstract view
.subckt sky130_fd_sc_hd__a2bb2o_1 A1_N A2_N B1 B2 VGND VNB VPB VPWR X
.ends

* Black-box entry subcircuit for sky130_fd_sc_hd__o22ai_1 abstract view
.subckt sky130_fd_sc_hd__o22ai_1 A1 A2 B1 B2 VGND VNB VPB VPWR Y
.ends

* Black-box entry subcircuit for sky130_fd_sc_hd__o32a_1 abstract view
.subckt sky130_fd_sc_hd__o32a_1 A1 A2 A3 B1 B2 VGND VNB VPB VPWR X
.ends

* Black-box entry subcircuit for sky130_fd_sc_hd__a311oi_2 abstract view
.subckt sky130_fd_sc_hd__a311oi_2 A1 A2 A3 B1 C1 VGND VNB VPB VPWR Y
.ends

* Black-box entry subcircuit for sky130_fd_sc_hd__a21oi_4 abstract view
.subckt sky130_fd_sc_hd__a21oi_4 A1 A2 B1 VGND VNB VPB VPWR Y
.ends

* Black-box entry subcircuit for sky130_fd_sc_hd__o21ba_1 abstract view
.subckt sky130_fd_sc_hd__o21ba_1 A1 A2 B1_N VGND VNB VPB VPWR X
.ends

* Black-box entry subcircuit for sky130_fd_sc_hd__o21ai_2 abstract view
.subckt sky130_fd_sc_hd__o21ai_2 A1 A2 B1 VGND VNB VPB VPWR Y
.ends

* Black-box entry subcircuit for sky130_fd_sc_hd__xnor2_1 abstract view
.subckt sky130_fd_sc_hd__xnor2_1 A B VGND VNB VPB VPWR Y
.ends

* Black-box entry subcircuit for sky130_fd_sc_hd__nor2_4 abstract view
.subckt sky130_fd_sc_hd__nor2_4 A B VGND VNB VPB VPWR Y
.ends

* Black-box entry subcircuit for sky130_fd_sc_hd__nor3b_1 abstract view
.subckt sky130_fd_sc_hd__nor3b_1 A B C_N VGND VNB VPB VPWR Y
.ends

* Black-box entry subcircuit for sky130_fd_sc_hd__a41o_1 abstract view
.subckt sky130_fd_sc_hd__a41o_1 A1 A2 A3 A4 B1 VGND VNB VPB VPWR X
.ends

* Black-box entry subcircuit for sky130_fd_sc_hd__nand3_4 abstract view
.subckt sky130_fd_sc_hd__nand3_4 A B C VGND VNB VPB VPWR Y
.ends

* Black-box entry subcircuit for sky130_fd_sc_hd__a21oi_2 abstract view
.subckt sky130_fd_sc_hd__a21oi_2 A1 A2 B1 VGND VNB VPB VPWR Y
.ends

* Black-box entry subcircuit for sky130_fd_sc_hd__a21bo_1 abstract view
.subckt sky130_fd_sc_hd__a21bo_1 A1 A2 B1_N VGND VNB VPB VPWR X
.ends

* Black-box entry subcircuit for sky130_fd_sc_hd__a31o_2 abstract view
.subckt sky130_fd_sc_hd__a31o_2 A1 A2 A3 B1 VGND VNB VPB VPWR X
.ends

* Black-box entry subcircuit for sky130_fd_sc_hd__nor2b_1 abstract view
.subckt sky130_fd_sc_hd__nor2b_1 A B_N VGND VNB VPB VPWR Y
.ends

* Black-box entry subcircuit for sky130_fd_sc_hd__or4_1 abstract view
.subckt sky130_fd_sc_hd__or4_1 A B C D VGND VNB VPB VPWR X
.ends

* Black-box entry subcircuit for sky130_fd_sc_hd__or3_1 abstract view
.subckt sky130_fd_sc_hd__or3_1 A B C VGND VNB VPB VPWR X
.ends

* Black-box entry subcircuit for sky130_fd_sc_hd__or3b_1 abstract view
.subckt sky130_fd_sc_hd__or3b_1 A B C_N VGND VNB VPB VPWR X
.ends

* Black-box entry subcircuit for sky130_fd_sc_hd__dlygate4sd3_1 abstract view
.subckt sky130_fd_sc_hd__dlygate4sd3_1 A VGND VNB VPB VPWR X
.ends

* Black-box entry subcircuit for sky130_fd_sc_hd__or2b_1 abstract view
.subckt sky130_fd_sc_hd__or2b_1 A B_N VGND VNB VPB VPWR X
.ends

* Black-box entry subcircuit for sky130_fd_sc_hd__nor3_1 abstract view
.subckt sky130_fd_sc_hd__nor3_1 A B C VGND VNB VPB VPWR Y
.ends

* Black-box entry subcircuit for sky130_fd_sc_hd__o211ai_1 abstract view
.subckt sky130_fd_sc_hd__o211ai_1 A1 A2 B1 C1 VGND VNB VPB VPWR Y
.ends

* Black-box entry subcircuit for sky130_fd_sc_hd__and3_4 abstract view
.subckt sky130_fd_sc_hd__and3_4 A B C VGND VNB VPB VPWR X
.ends

* Black-box entry subcircuit for sky130_fd_sc_hd__a211o_1 abstract view
.subckt sky130_fd_sc_hd__a211o_1 A1 A2 B1 C1 VGND VNB VPB VPWR X
.ends

* Black-box entry subcircuit for sky130_fd_sc_hd__dlymetal6s2s_1 abstract view
.subckt sky130_fd_sc_hd__dlymetal6s2s_1 A VGND VNB VPB VPWR X
.ends

* Black-box entry subcircuit for sky130_fd_sc_hd__o221ai_4 abstract view
.subckt sky130_fd_sc_hd__o221ai_4 A1 A2 B1 B2 C1 VGND VNB VPB VPWR Y
.ends

* Black-box entry subcircuit for sky130_fd_sc_hd__nand3_2 abstract view
.subckt sky130_fd_sc_hd__nand3_2 A B C VGND VNB VPB VPWR Y
.ends

* Black-box entry subcircuit for sky130_fd_sc_hd__o31ai_1 abstract view
.subckt sky130_fd_sc_hd__o31ai_1 A1 A2 A3 B1 VGND VNB VPB VPWR Y
.ends

* Black-box entry subcircuit for sky130_fd_sc_hd__a221o_1 abstract view
.subckt sky130_fd_sc_hd__a221o_1 A1 A2 B1 B2 C1 VGND VNB VPB VPWR X
.ends

.subckt egd_top_wrapper la_data_in_58_43[0] la_data_in_58_43[10] la_data_in_58_43[11]
+ la_data_in_58_43[12] la_data_in_58_43[13] la_data_in_58_43[14] la_data_in_58_43[15]
+ la_data_in_58_43[1] la_data_in_58_43[2] la_data_in_58_43[3] la_data_in_58_43[4]
+ la_data_in_58_43[5] la_data_in_58_43[6] la_data_in_58_43[7] la_data_in_58_43[8]
+ la_data_in_58_43[9] la_data_in_60_59[0] la_data_in_60_59[1] la_data_in_65 la_data_out_23_16[0]
+ la_data_out_23_16[1] la_data_out_23_16[2] la_data_out_23_16[3] la_data_out_23_16[4]
+ la_data_out_23_16[5] la_data_out_23_16[6] la_data_out_23_16[7] la_data_out_26_24[0]
+ la_data_out_26_24[1] la_data_out_26_24[2] la_data_out_30_27[0] la_data_out_30_27[1]
+ la_data_out_30_27[2] la_data_out_30_27[3] vccd1 vssd1 wb_clk_i
XTAP_188 vssd1 vccd1 sky130_fd_sc_hd__tapvpwrvgnd_1
XTAP_199 vssd1 vccd1 sky130_fd_sc_hd__tapvpwrvgnd_1
XFILLER_82_523 vssd1 vssd1 vccd1 vccd1 sky130_fd_sc_hd__decap_4
XFILLER_35_461 vssd1 vssd1 vccd1 vccd1 sky130_fd_sc_hd__decap_6
XFILLER_52_29 vssd1 vssd1 vccd1 vccd1 sky130_fd_sc_hd__fill_2
X_6845_ net89 _0304_ vssd1 vssd1 vccd1 vccd1 egd_top.BitStream_buffer.BS_buffer\[121\]
+ sky130_fd_sc_hd__dfxtp_2
XFILLER_50_442 vssd1 vssd1 vccd1 vccd1 sky130_fd_sc_hd__decap_4
X_3988_ egd_top.BitStream_buffer.BS_buffer\[20\] vssd1 vssd1 vccd1 vccd1 _0502_ sky130_fd_sc_hd__clkbuf_4
X_6776_ net180 _0235_ vssd1 vssd1 vccd1 vccd1 egd_top.BitStream_buffer.BS_buffer\[44\]
+ sky130_fd_sc_hd__dfxtp_1
X_5727_ _0602_ _0592_ _0688_ _0595_ _2227_ vssd1 vssd1 vccd1 vccd1 _2228_ sky130_fd_sc_hd__o221a_1
X_5658_ _3163_ _3177_ vssd1 vssd1 vccd1 vccd1 _2160_ sky130_fd_sc_hd__nand2_1
X_4609_ _0611_ _0587_ vssd1 vssd1 vccd1 vccd1 _1119_ sky130_fd_sc_hd__or2_1
X_5589_ _1360_ _0463_ vssd1 vssd1 vccd1 vccd1 _2091_ sky130_fd_sc_hd__or2_1
XFILLER_89_122 vssd1 vssd1 vccd1 vccd1 sky130_fd_sc_hd__decap_4
XFILLER_7_7 vssd1 vssd1 vccd1 vccd1 sky130_fd_sc_hd__fill_1
XFILLER_89_144 vssd1 vssd1 vccd1 vccd1 sky130_fd_sc_hd__fill_1
XFILLER_89_133 vssd1 vssd1 vccd1 vccd1 sky130_fd_sc_hd__decap_4
XFILLER_89_188 vssd1 vssd1 vccd1 vccd1 sky130_fd_sc_hd__decap_6
XFILLER_58_531 vssd1 vssd1 vccd1 vccd1 sky130_fd_sc_hd__fill_1
XFILLER_92_309 vssd1 vssd1 vccd1 vccd1 sky130_ef_sc_hd__decap_12
XFILLER_85_383 vssd1 vssd1 vccd1 vccd1 sky130_fd_sc_hd__fill_1
XFILLER_73_523 vssd1 vssd1 vccd1 vccd1 sky130_fd_sc_hd__decap_8
XFILLER_45_225 vssd1 vssd1 vccd1 vccd1 sky130_fd_sc_hd__fill_2
XFILLER_26_472 vssd1 vssd1 vccd1 vccd1 sky130_fd_sc_hd__decap_4
XFILLER_26_85 vssd1 vssd1 vccd1 vccd1 sky130_fd_sc_hd__fill_2
XFILLER_9_126 vssd1 vssd1 vccd1 vccd1 sky130_fd_sc_hd__decap_4
XFILLER_41_486 vssd1 vssd1 vccd1 vccd1 sky130_fd_sc_hd__fill_1
XFILLER_54_9 vssd1 vssd1 vccd1 vccd1 sky130_fd_sc_hd__fill_1
XFILLER_5_332 vssd1 vssd1 vccd1 vccd1 sky130_fd_sc_hd__decap_4
XFILLER_5_398 vssd1 vssd1 vccd1 vccd1 sky130_fd_sc_hd__decap_4
XFILLER_5_376 vssd1 vssd1 vccd1 vccd1 sky130_fd_sc_hd__decap_4
XFILLER_3_12 vssd1 vssd1 vccd1 vccd1 sky130_fd_sc_hd__decap_4
XFILLER_68_306 vssd1 vssd1 vccd1 vccd1 sky130_fd_sc_hd__fill_2
XFILLER_3_34 vssd1 vssd1 vccd1 vccd1 sky130_fd_sc_hd__decap_8
XFILLER_64_545 vssd1 vssd1 vccd1 vccd1 sky130_fd_sc_hd__decap_4
XFILLER_83_80 vssd1 vssd1 vccd1 vccd1 sky130_fd_sc_hd__fill_1
X_4960_ _0353_ _0400_ vssd1 vssd1 vccd1 vccd1 _1467_ sky130_fd_sc_hd__nand2_1
XFILLER_51_217 vssd1 vssd1 vccd1 vccd1 sky130_fd_sc_hd__decap_6
XFILLER_17_494 vssd1 vssd1 vccd1 vccd1 sky130_fd_sc_hd__decap_4
X_3911_ _0424_ vssd1 vssd1 vccd1 vccd1 _0425_ sky130_fd_sc_hd__clkbuf_2
X_4891_ _3300_ _0772_ vssd1 vssd1 vccd1 vccd1 _1399_ sky130_fd_sc_hd__nand2_1
XFILLER_44_280 vssd1 vssd1 vccd1 vccd1 sky130_fd_sc_hd__fill_1
X_3842_ _0348_ _0350_ _0355_ vssd1 vssd1 vccd1 vccd1 _0356_ sky130_fd_sc_hd__o21ai_1
X_5512_ _0371_ _0869_ vssd1 vssd1 vccd1 vccd1 _2015_ sky130_fd_sc_hd__nand2_1
X_3773_ _3087_ _3297_ vssd1 vssd1 vccd1 vccd1 _3307_ sky130_fd_sc_hd__nand2_2
X_6492_ _2802_ _2853_ vssd1 vssd1 vccd1 vccd1 _2854_ sky130_fd_sc_hd__nand2_1
X_5443_ _3027_ _1944_ _1946_ vssd1 vssd1 vccd1 vccd1 _0287_ sky130_fd_sc_hd__o21a_1
X_5374_ _0676_ _0593_ _0611_ _0599_ _1877_ vssd1 vssd1 vccd1 vccd1 _1878_ sky130_fd_sc_hd__o221a_1
X_4325_ egd_top.BitStream_buffer.BS_buffer\[80\] vssd1 vssd1 vccd1 vccd1 _0837_ sky130_fd_sc_hd__clkbuf_4
XFILLER_86_147 vssd1 vssd1 vccd1 vccd1 sky130_fd_sc_hd__fill_1
X_4256_ _0767_ _3299_ _0768_ vssd1 vssd1 vccd1 vccd1 _0769_ sky130_fd_sc_hd__o21ai_1
X_4187_ _0532_ _0530_ _0524_ _0533_ vssd1 vssd1 vccd1 vccd1 _0700_ sky130_fd_sc_hd__o22a_1
XFILLER_74_309 vssd1 vssd1 vccd1 vccd1 sky130_ef_sc_hd__decap_12
XFILLER_47_29 vssd1 vssd1 vccd1 vccd1 sky130_fd_sc_hd__decap_4
XFILLER_27_225 vssd1 vssd1 vccd1 vccd1 sky130_fd_sc_hd__fill_2
XFILLER_27_258 vssd1 vssd1 vccd1 vccd1 sky130_fd_sc_hd__fill_2
XFILLER_82_386 vssd1 vssd1 vccd1 vccd1 sky130_ef_sc_hd__decap_12
XFILLER_42_206 vssd1 vssd1 vccd1 vccd1 sky130_fd_sc_hd__fill_1
XFILLER_23_431 vssd1 vssd1 vccd1 vccd1 sky130_fd_sc_hd__fill_1
X_6828_ net72 _0287_ vssd1 vssd1 vccd1 vccd1 egd_top.BitStream_buffer.BitStream_buffer_output\[5\]
+ sky130_fd_sc_hd__dfxtp_2
XFILLER_23_475 vssd1 vssd1 vccd1 vccd1 sky130_fd_sc_hd__decap_3
Xclkbuf_0__2887_ _2887_ vssd1 vssd1 vccd1 vccd1 clknet_0__2887_ sky130_fd_sc_hd__clkbuf_16
X_6759_ net163 _0218_ vssd1 vssd1 vccd1 vccd1 egd_top.BitStream_buffer.BS_buffer\[61\]
+ sky130_fd_sc_hd__dfxtp_1
XFILLER_12_43 vssd1 vssd1 vccd1 vccd1 sky130_fd_sc_hd__decap_4
XFILLER_6_129 vssd1 vssd1 vccd1 vccd1 sky130_fd_sc_hd__decap_4
XFILLER_12_76 vssd1 vssd1 vccd1 vccd1 sky130_fd_sc_hd__decap_8
XFILLER_77_125 vssd1 vssd1 vccd1 vccd1 sky130_fd_sc_hd__decap_6
XFILLER_77_169 vssd1 vssd1 vccd1 vccd1 sky130_fd_sc_hd__decap_6
XFILLER_65_309 vssd1 vssd1 vccd1 vccd1 sky130_fd_sc_hd__decap_4
XFILLER_58_361 vssd1 vssd1 vccd1 vccd1 sky130_fd_sc_hd__decap_3
XFILLER_37_51 vssd1 vssd1 vccd1 vccd1 sky130_fd_sc_hd__decap_4
XFILLER_46_512 vssd1 vssd1 vccd1 vccd1 sky130_fd_sc_hd__fill_1
XFILLER_18_258 vssd1 vssd1 vccd1 vccd1 sky130_fd_sc_hd__decap_4
XFILLER_46_545 vssd1 vssd1 vccd1 vccd1 sky130_fd_sc_hd__decap_4
XFILLER_37_95 vssd1 vssd1 vccd1 vccd1 sky130_fd_sc_hd__decap_4
XFILLER_14_464 vssd1 vssd1 vccd1 vccd1 sky130_fd_sc_hd__fill_1
XFILLER_78_91 vssd1 vssd1 vccd1 vccd1 sky130_fd_sc_hd__fill_1
X_5090_ _2980_ _3123_ _1595_ vssd1 vssd1 vccd1 vccd1 _1596_ sky130_fd_sc_hd__o21ai_1
X_4110_ _0622_ _0623_ vssd1 vssd1 vccd1 vccd1 _0624_ sky130_fd_sc_hd__nand2_1
X_4041_ _2932_ _3211_ _3034_ vssd1 vssd1 vccd1 vccd1 _0555_ sky130_fd_sc_hd__and3_1
XFILLER_56_309 vssd1 vssd1 vccd1 vccd1 sky130_fd_sc_hd__decap_8
XFILLER_76_191 vssd1 vssd1 vccd1 vccd1 sky130_fd_sc_hd__decap_4
XFILLER_76_180 vssd1 vssd1 vccd1 vccd1 sky130_fd_sc_hd__decap_4
X_6560__103 clknet_1_1__leaf__2887_ vssd1 vssd1 vccd1 vccd1 net137 sky130_fd_sc_hd__inv_2
X_5992_ _2982_ _2465_ _2458_ _2469_ vssd1 vssd1 vccd1 vccd1 _0261_ sky130_fd_sc_hd__o211a_1
X_4943_ _3167_ egd_top.BitStream_buffer.BS_buffer\[118\] vssd1 vssd1 vccd1 vccd1 _1451_
+ sky130_fd_sc_hd__nand2_1
XFILLER_32_250 vssd1 vssd1 vccd1 vccd1 sky130_fd_sc_hd__fill_2
X_4874_ _0496_ _0527_ vssd1 vssd1 vccd1 vccd1 _1382_ sky130_fd_sc_hd__nand2_1
X_6613_ clknet_1_1__leaf__2883_ vssd1 vssd1 vccd1 vccd1 _2892_ sky130_fd_sc_hd__buf_1
XFILLER_32_272 vssd1 vssd1 vccd1 vccd1 sky130_fd_sc_hd__decap_4
X_3825_ _0338_ vssd1 vssd1 vccd1 vccd1 _0339_ sky130_fd_sc_hd__buf_2
X_3756_ _3289_ vssd1 vssd1 vccd1 vccd1 _3290_ sky130_fd_sc_hd__buf_4
X_6475_ _2807_ _2771_ _2804_ vssd1 vssd1 vccd1 vccd1 _2838_ sky130_fd_sc_hd__nand3_1
X_5426_ _0566_ _3137_ _0568_ _3141_ _1929_ vssd1 vssd1 vccd1 vccd1 _1930_ sky130_fd_sc_hd__a221oi_1
X_3687_ egd_top.BitStream_buffer.BS_buffer\[70\] vssd1 vssd1 vccd1 vccd1 _3221_ sky130_fd_sc_hd__clkbuf_4
X_5357_ _0633_ _0523_ _1084_ _0526_ _1860_ vssd1 vssd1 vccd1 vccd1 _1861_ sky130_fd_sc_hd__o221a_1
XFILLER_87_434 vssd1 vssd1 vccd1 vccd1 sky130_fd_sc_hd__fill_1
X_4308_ _3181_ _0623_ _0741_ _3176_ vssd1 vssd1 vccd1 vccd1 _0820_ sky130_fd_sc_hd__a22o_1
XFILLER_59_125 vssd1 vssd1 vccd1 vccd1 sky130_fd_sc_hd__decap_6
X_5288_ _0406_ _0436_ vssd1 vssd1 vccd1 vccd1 _1793_ sky130_fd_sc_hd__nand2_1
XFILLER_59_169 vssd1 vssd1 vccd1 vccd1 sky130_fd_sc_hd__fill_2
XFILLER_59_147 vssd1 vssd1 vccd1 vccd1 sky130_ef_sc_hd__decap_12
X_4239_ _3239_ vssd1 vssd1 vccd1 vccd1 _0752_ sky130_fd_sc_hd__inv_2
XFILLER_74_128 vssd1 vssd1 vccd1 vccd1 sky130_ef_sc_hd__decap_12
XFILLER_74_49 vssd1 vssd1 vccd1 vccd1 sky130_fd_sc_hd__decap_6
XFILLER_74_38 vssd1 vssd1 vccd1 vccd1 sky130_fd_sc_hd__decap_4
XFILLER_74_27 vssd1 vssd1 vccd1 vccd1 sky130_fd_sc_hd__fill_1
XFILLER_55_386 vssd1 vssd1 vccd1 vccd1 sky130_fd_sc_hd__decap_6
XFILLER_15_206 vssd1 vssd1 vccd1 vccd1 sky130_fd_sc_hd__decap_4
XFILLER_82_194 vssd1 vssd1 vccd1 vccd1 sky130_fd_sc_hd__fill_2
XFILLER_90_15 vssd1 vssd1 vccd1 vccd1 sky130_ef_sc_hd__decap_12
XFILLER_70_356 vssd1 vssd1 vccd1 vccd1 sky130_fd_sc_hd__decap_8
XFILLER_30_209 vssd1 vssd1 vccd1 vccd1 sky130_fd_sc_hd__decap_4
XFILLER_11_445 vssd1 vssd1 vccd1 vccd1 sky130_fd_sc_hd__decap_3
XFILLER_7_449 vssd1 vssd1 vccd1 vccd1 sky130_fd_sc_hd__decap_6
XFILLER_7_416 vssd1 vssd1 vccd1 vccd1 sky130_fd_sc_hd__decap_6
XFILLER_23_97 vssd1 vssd1 vccd1 vccd1 sky130_fd_sc_hd__decap_8
XFILLER_38_309 vssd1 vssd1 vccd1 vccd1 sky130_fd_sc_hd__fill_2
XFILLER_65_106 vssd1 vssd1 vccd1 vccd1 sky130_fd_sc_hd__fill_1
XFILLER_17_9 vssd1 vssd1 vccd1 vccd1 sky130_fd_sc_hd__fill_1
XFILLER_19_512 vssd1 vssd1 vccd1 vccd1 sky130_fd_sc_hd__decap_8
XFILLER_61_301 vssd1 vssd1 vccd1 vccd1 sky130_fd_sc_hd__decap_4
XFILLER_0_57 vssd1 vssd1 vccd1 vccd1 sky130_fd_sc_hd__fill_2
XFILLER_61_345 vssd1 vssd1 vccd1 vccd1 sky130_fd_sc_hd__decap_4
XFILLER_46_397 vssd1 vssd1 vccd1 vccd1 sky130_fd_sc_hd__fill_1
XFILLER_61_378 vssd1 vssd1 vccd1 vccd1 sky130_fd_sc_hd__decap_4
XFILLER_14_250 vssd1 vssd1 vccd1 vccd1 sky130_fd_sc_hd__fill_2
XFILLER_9_88 vssd1 vssd1 vccd1 vccd1 sky130_fd_sc_hd__decap_6
XFILLER_14_294 vssd1 vssd1 vccd1 vccd1 sky130_ef_sc_hd__decap_12
X_3610_ _3143_ vssd1 vssd1 vccd1 vccd1 _3144_ sky130_fd_sc_hd__buf_2
X_4590_ _0474_ _0449_ _1097_ _1098_ _1099_ vssd1 vssd1 vccd1 vccd1 _1100_ sky130_fd_sc_hd__o2111a_1
X_3541_ egd_top.BitStream_buffer.BS_buffer\[110\] vssd1 vssd1 vccd1 vccd1 _3075_ sky130_fd_sc_hd__clkbuf_4
X_3472_ net11 vssd1 vssd1 vccd1 vccd1 _3011_ sky130_fd_sc_hd__buf_4
X_6260_ egd_top.BitStream_buffer.BitStream_buffer_output\[11\] vssd1 vssd1 vccd1 vccd1
+ _2631_ sky130_fd_sc_hd__inv_2
XFILLER_50_3 vssd1 vssd1 vccd1 vccd1 sky130_fd_sc_hd__decap_6
X_5211_ _0804_ _3055_ _1713_ _1714_ _1715_ vssd1 vssd1 vccd1 vccd1 _1716_ sky130_fd_sc_hd__o2111a_1
X_6191_ _2586_ _2575_ vssd1 vssd1 vccd1 vccd1 _2589_ sky130_fd_sc_hd__and2_1
X_5142_ _0393_ _0342_ _0345_ _0400_ _1647_ vssd1 vssd1 vccd1 vccd1 _1648_ sky130_fd_sc_hd__a221oi_1
XFILLER_69_489 vssd1 vssd1 vccd1 vccd1 sky130_fd_sc_hd__fill_1
X_5073_ _3293_ _3271_ _3315_ _3275_ _1579_ vssd1 vssd1 vccd1 vccd1 _1580_ sky130_fd_sc_hd__a221oi_1
X_4024_ _0488_ _3077_ vssd1 vssd1 vccd1 vccd1 _0538_ sky130_fd_sc_hd__nor2_2
XFILLER_56_139 vssd1 vssd1 vccd1 vccd1 sky130_fd_sc_hd__fill_1
XFILLER_37_397 vssd1 vssd1 vccd1 vccd1 sky130_fd_sc_hd__fill_1
X_5975_ _2449_ _0676_ vssd1 vssd1 vccd1 vccd1 _2459_ sky130_fd_sc_hd__nand2_1
X_4926_ _1430_ _3239_ _1431_ _1432_ _1433_ vssd1 vssd1 vccd1 vccd1 _1434_ sky130_fd_sc_hd__o2111a_1
X_4857_ _0564_ _0583_ vssd1 vssd1 vccd1 vccd1 _1365_ sky130_fd_sc_hd__nand2_1
XFILLER_20_242 vssd1 vssd1 vccd1 vccd1 sky130_fd_sc_hd__fill_1
X_3808_ _3290_ _3079_ vssd1 vssd1 vccd1 vccd1 _0322_ sky130_fd_sc_hd__nor2_2
XFILLER_60_29 vssd1 vssd1 vccd1 vccd1 sky130_fd_sc_hd__decap_3
XFILLER_20_253 vssd1 vssd1 vccd1 vccd1 sky130_fd_sc_hd__fill_2
X_4788_ egd_top.BitStream_buffer.BS_buffer\[66\] vssd1 vssd1 vccd1 vccd1 _1297_ sky130_fd_sc_hd__clkinv_2
X_3739_ _3071_ _3213_ vssd1 vssd1 vccd1 vccd1 _3273_ sky130_fd_sc_hd__nand2_1
XFILLER_69_27 vssd1 vssd1 vccd1 vccd1 sky130_ef_sc_hd__decap_12
X_6458_ _2819_ _2821_ vssd1 vssd1 vccd1 vccd1 _2822_ sky130_fd_sc_hd__nor2_1
X_6389_ _2757_ _2758_ _2664_ vssd1 vssd1 vccd1 vccd1 _2759_ sky130_fd_sc_hd__a21o_1
X_5409_ _1899_ _1912_ vssd1 vssd1 vccd1 vccd1 _1913_ sky130_fd_sc_hd__nand2_1
XFILLER_87_220 vssd1 vssd1 vccd1 vccd1 sky130_fd_sc_hd__decap_4
XFILLER_87_253 vssd1 vssd1 vccd1 vccd1 sky130_fd_sc_hd__fill_1
XFILLER_85_15 vssd1 vssd1 vccd1 vccd1 sky130_ef_sc_hd__decap_12
XFILLER_75_404 vssd1 vssd1 vccd1 vccd1 sky130_fd_sc_hd__decap_4
XFILLER_18_42 vssd1 vssd1 vccd1 vccd1 sky130_fd_sc_hd__fill_2
XFILLER_62_109 vssd1 vssd1 vccd1 vccd1 sky130_fd_sc_hd__decap_4
XFILLER_16_548 vssd1 vssd1 vccd1 vccd1 sky130_fd_sc_hd__fill_2
XFILLER_18_97 vssd1 vssd1 vccd1 vccd1 sky130_fd_sc_hd__decap_4
XFILLER_70_153 vssd1 vssd1 vccd1 vccd1 sky130_ef_sc_hd__decap_12
XFILLER_31_518 vssd1 vssd1 vccd1 vccd1 sky130_fd_sc_hd__fill_2
XFILLER_70_186 vssd1 vssd1 vccd1 vccd1 sky130_fd_sc_hd__decap_4
XFILLER_70_197 vssd1 vssd1 vccd1 vccd1 sky130_fd_sc_hd__decap_6
XFILLER_34_85 vssd1 vssd1 vccd1 vccd1 sky130_fd_sc_hd__fill_2
XTAP_507 vssd1 vccd1 sky130_fd_sc_hd__tapvpwrvgnd_1
XFILLER_3_474 vssd1 vssd1 vccd1 vccd1 sky130_fd_sc_hd__decap_4
XTAP_518 vssd1 vccd1 sky130_fd_sc_hd__tapvpwrvgnd_1
XTAP_529 vssd1 vccd1 sky130_fd_sc_hd__tapvpwrvgnd_1
XFILLER_78_253 vssd1 vssd1 vccd1 vccd1 sky130_fd_sc_hd__fill_2
XFILLER_66_437 vssd1 vssd1 vccd1 vccd1 sky130_ef_sc_hd__decap_12
XFILLER_38_128 vssd1 vssd1 vccd1 vccd1 sky130_ef_sc_hd__decap_12
XFILLER_75_81 vssd1 vssd1 vccd1 vccd1 sky130_fd_sc_hd__decap_4
XFILLER_19_342 vssd1 vssd1 vccd1 vccd1 sky130_fd_sc_hd__decap_6
XFILLER_19_375 vssd1 vssd1 vccd1 vccd1 sky130_fd_sc_hd__decap_8
XFILLER_46_150 vssd1 vssd1 vccd1 vccd1 sky130_fd_sc_hd__decap_4
XFILLER_75_92 vssd1 vssd1 vccd1 vccd1 sky130_ef_sc_hd__decap_12
XFILLER_46_183 vssd1 vssd1 vccd1 vccd1 sky130_fd_sc_hd__decap_4
X_5760_ _3138_ _0726_ _3173_ _3081_ _2260_ vssd1 vssd1 vccd1 vccd1 _2261_ sky130_fd_sc_hd__a221oi_1
X_4711_ _3049_ _0327_ _1219_ vssd1 vssd1 vccd1 vccd1 _1220_ sky130_fd_sc_hd__o21ai_1
X_5691_ _0960_ _0349_ _2191_ vssd1 vssd1 vccd1 vccd1 _2192_ sky130_fd_sc_hd__o21ai_1
X_4642_ _3283_ _3251_ _3276_ _3255_ _1151_ vssd1 vssd1 vccd1 vccd1 _1152_ sky130_fd_sc_hd__a221oi_1
X_4573_ _0375_ _0341_ _0344_ _0379_ _1082_ vssd1 vssd1 vccd1 vccd1 _1083_ sky130_fd_sc_hd__a221oi_1
X_3524_ _3057_ _3031_ _3032_ vssd1 vssd1 vccd1 vccd1 _3058_ sky130_fd_sc_hd__and3_2
X_6312_ _2676_ _2682_ vssd1 vssd1 vccd1 vccd1 _2683_ sky130_fd_sc_hd__nand2_1
X_3455_ net15 vssd1 vssd1 vccd1 vccd1 _2998_ sky130_fd_sc_hd__clkbuf_4
X_6243_ _2608_ _1003_ vssd1 vssd1 vccd1 vccd1 _2618_ sky130_fd_sc_hd__nand2_1
XFILLER_69_220 vssd1 vssd1 vccd1 vccd1 sky130_fd_sc_hd__decap_4
XFILLER_69_231 vssd1 vssd1 vccd1 vccd1 sky130_fd_sc_hd__fill_1
X_3386_ _2938_ _2939_ egd_top.BitStream_buffer.buffer_index\[6\] vssd1 vssd1 vccd1
+ vccd1 _2940_ sky130_fd_sc_hd__and3_1
X_6174_ _3023_ _2555_ _2570_ _2574_ vssd1 vssd1 vccd1 vccd1 _0184_ sky130_fd_sc_hd__o211a_1
X_5125_ _0776_ _3299_ _1630_ vssd1 vssd1 vccd1 vccd1 _1631_ sky130_fd_sc_hd__o21ai_1
XFILLER_84_234 vssd1 vssd1 vccd1 vccd1 sky130_fd_sc_hd__decap_4
X_5056_ _0796_ _0327_ _1560_ _1561_ _1562_ vssd1 vssd1 vccd1 vccd1 _1563_ sky130_fd_sc_hd__o2111ai_1
X_4007_ _0484_ _3031_ egd_top.BitStream_buffer.pc\[3\] vssd1 vssd1 vccd1 vccd1 _0521_
+ sky130_fd_sc_hd__and3_1
XFILLER_37_150 vssd1 vssd1 vccd1 vccd1 sky130_fd_sc_hd__decap_4
XFILLER_25_323 vssd1 vssd1 vccd1 vccd1 sky130_fd_sc_hd__decap_4
XFILLER_80_462 vssd1 vssd1 vccd1 vccd1 sky130_fd_sc_hd__decap_6
XFILLER_25_389 vssd1 vssd1 vccd1 vccd1 sky130_fd_sc_hd__decap_3
X_5958_ _2449_ _0682_ vssd1 vssd1 vccd1 vccd1 _2450_ sky130_fd_sc_hd__nand2_1
X_4909_ _0727_ _3089_ _1414_ _1415_ _1416_ vssd1 vssd1 vccd1 vccd1 _1417_ sky130_fd_sc_hd__o2111a_1
XFILLER_21_540 vssd1 vssd1 vccd1 vccd1 sky130_fd_sc_hd__decap_4
XFILLER_40_337 vssd1 vssd1 vccd1 vccd1 sky130_fd_sc_hd__fill_1
X_5889_ _0442_ _3230_ vssd1 vssd1 vccd1 vccd1 _2389_ sky130_fd_sc_hd__nand2_1
XFILLER_4_205 vssd1 vssd1 vccd1 vccd1 sky130_fd_sc_hd__decap_4
XFILLER_0_433 vssd1 vssd1 vccd1 vccd1 sky130_fd_sc_hd__decap_4
XFILLER_75_201 vssd1 vssd1 vccd1 vccd1 sky130_fd_sc_hd__decap_3
XFILLER_0_477 vssd1 vssd1 vccd1 vccd1 sky130_fd_sc_hd__fill_2
XFILLER_48_426 vssd1 vssd1 vccd1 vccd1 sky130_ef_sc_hd__decap_12
XFILLER_75_234 vssd1 vssd1 vccd1 vccd1 sky130_fd_sc_hd__fill_1
XFILLER_75_223 vssd1 vssd1 vccd1 vccd1 sky130_fd_sc_hd__fill_1
XFILLER_75_256 vssd1 vssd1 vccd1 vccd1 sky130_fd_sc_hd__decap_8
XFILLER_28_150 vssd1 vssd1 vccd1 vccd1 sky130_fd_sc_hd__fill_1
XFILLER_56_492 vssd1 vssd1 vccd1 vccd1 sky130_fd_sc_hd__decap_4
XFILLER_71_484 vssd1 vssd1 vccd1 vccd1 sky130_fd_sc_hd__decap_8
XFILLER_71_473 vssd1 vssd1 vccd1 vccd1 sky130_fd_sc_hd__decap_4
XFILLER_43_164 vssd1 vssd1 vccd1 vccd1 sky130_fd_sc_hd__decap_4
XFILLER_43_186 vssd1 vssd1 vccd1 vccd1 sky130_fd_sc_hd__fill_2
XFILLER_31_337 vssd1 vssd1 vccd1 vccd1 sky130_fd_sc_hd__fill_2
XFILLER_8_533 vssd1 vssd1 vccd1 vccd1 sky130_fd_sc_hd__fill_2
XFILLER_6_34 vssd1 vssd1 vccd1 vccd1 sky130_fd_sc_hd__decap_4
XANTENNA_5 _1065_ vssd1 vssd1 vccd1 vccd1 sky130_fd_sc_hd__diode_2
XTAP_304 vssd1 vccd1 sky130_fd_sc_hd__tapvpwrvgnd_1
XTAP_315 vssd1 vccd1 sky130_fd_sc_hd__tapvpwrvgnd_1
XTAP_326 vssd1 vccd1 sky130_fd_sc_hd__tapvpwrvgnd_1
XTAP_337 vssd1 vccd1 sky130_fd_sc_hd__tapvpwrvgnd_1
XTAP_348 vssd1 vccd1 sky130_fd_sc_hd__tapvpwrvgnd_1
XTAP_359 vssd1 vccd1 sky130_fd_sc_hd__tapvpwrvgnd_1
XFILLER_66_223 vssd1 vssd1 vccd1 vccd1 sky130_fd_sc_hd__fill_1
XFILLER_13_3 vssd1 vssd1 vccd1 vccd1 sky130_fd_sc_hd__decap_6
XFILLER_66_289 vssd1 vssd1 vccd1 vccd1 sky130_fd_sc_hd__decap_8
X_6861_ net105 _0320_ vssd1 vssd1 vccd1 vccd1 net33 sky130_fd_sc_hd__dfxtp_2
X_6792_ net36 _0251_ vssd1 vssd1 vccd1 vccd1 egd_top.BitStream_buffer.BS_buffer\[28\]
+ sky130_fd_sc_hd__dfxtp_4
X_5812_ _0837_ _3233_ _3236_ _3302_ _2311_ vssd1 vssd1 vccd1 vccd1 _2312_ sky130_fd_sc_hd__a221oi_2
X_5743_ _0869_ _0538_ _0393_ _0541_ _2243_ vssd1 vssd1 vccd1 vccd1 _2244_ sky130_fd_sc_hd__a221oi_1
XFILLER_34_197 vssd1 vssd1 vccd1 vccd1 sky130_fd_sc_hd__fill_2
X_5674_ _2986_ _3088_ vssd1 vssd1 vccd1 vccd1 _2176_ sky130_fd_sc_hd__or2_1
XFILLER_30_370 vssd1 vssd1 vccd1 vccd1 sky130_fd_sc_hd__decap_4
X_4625_ _0543_ _0529_ _0907_ _0525_ vssd1 vssd1 vccd1 vccd1 _1135_ sky130_fd_sc_hd__o22a_1
X_4556_ _3147_ egd_top.BitStream_buffer.BS_buffer\[124\] vssd1 vssd1 vccd1 vccd1 _1067_
+ sky130_fd_sc_hd__nand2_1
X_3507_ _3035_ vssd1 vssd1 vccd1 vccd1 _3041_ sky130_fd_sc_hd__buf_4
XFILLER_89_337 vssd1 vssd1 vccd1 vccd1 sky130_fd_sc_hd__decap_6