* NGSPICE file created from egd_top_wrapper.ext - technology: sky130A

* Black-box entry subcircuit for sky130_fd_sc_hd__tapvpwrvgnd_1 abstract view
.subckt sky130_fd_sc_hd__tapvpwrvgnd_1 VGND VPWR
.ends

* Black-box entry subcircuit for sky130_ef_sc_hd__decap_12 abstract view
.subckt sky130_ef_sc_hd__decap_12 VGND VNB VPB VPWR
.ends

* Black-box entry subcircuit for sky130_fd_sc_hd__dfxtp_2 abstract view
.subckt sky130_fd_sc_hd__dfxtp_2 CLK D VGND VNB VPB VPWR Q
.ends

* Black-box entry subcircuit for sky130_fd_sc_hd__dfxtp_1 abstract view
.subckt sky130_fd_sc_hd__dfxtp_1 CLK D VGND VNB VPB VPWR Q
.ends

* Black-box entry subcircuit for sky130_fd_sc_hd__buf_4 abstract view
.subckt sky130_fd_sc_hd__buf_4 A VGND VNB VPB VPWR X
.ends

* Black-box entry subcircuit for sky130_fd_sc_hd__fill_1 abstract view
.subckt sky130_fd_sc_hd__fill_1 VGND VNB VPB VPWR
.ends

* Black-box entry subcircuit for sky130_fd_sc_hd__o21ai_1 abstract view
.subckt sky130_fd_sc_hd__o21ai_1 A1 A2 B1 VGND VNB VPB VPWR Y
.ends

* Black-box entry subcircuit for sky130_fd_sc_hd__fill_2 abstract view
.subckt sky130_fd_sc_hd__fill_2 VGND VNB VPB VPWR
.ends

* Black-box entry subcircuit for sky130_fd_sc_hd__inv_2 abstract view
.subckt sky130_fd_sc_hd__inv_2 A VGND VNB VPB VPWR Y
.ends

* Black-box entry subcircuit for sky130_fd_sc_hd__nand2_1 abstract view
.subckt sky130_fd_sc_hd__nand2_1 A B VGND VNB VPB VPWR Y
.ends

* Black-box entry subcircuit for sky130_fd_sc_hd__decap_4 abstract view
.subckt sky130_fd_sc_hd__decap_4 VGND VNB VPB VPWR
.ends

* Black-box entry subcircuit for sky130_fd_sc_hd__or2_1 abstract view
.subckt sky130_fd_sc_hd__or2_1 A B VGND VNB VPB VPWR X
.ends

* Black-box entry subcircuit for sky130_fd_sc_hd__and4_1 abstract view
.subckt sky130_fd_sc_hd__and4_1 A B C D VGND VNB VPB VPWR X
.ends

* Black-box entry subcircuit for sky130_fd_sc_hd__clkbuf_4 abstract view
.subckt sky130_fd_sc_hd__clkbuf_4 A VGND VNB VPB VPWR X
.ends

* Black-box entry subcircuit for sky130_fd_sc_hd__a221oi_1 abstract view
.subckt sky130_fd_sc_hd__a221oi_1 A1 A2 B1 B2 C1 VGND VNB VPB VPWR Y
.ends

* Black-box entry subcircuit for sky130_fd_sc_hd__decap_8 abstract view
.subckt sky130_fd_sc_hd__decap_8 VGND VNB VPB VPWR
.ends

* Black-box entry subcircuit for sky130_fd_sc_hd__o21ai_2 abstract view
.subckt sky130_fd_sc_hd__o21ai_2 A1 A2 B1 VGND VNB VPB VPWR Y
.ends

* Black-box entry subcircuit for sky130_fd_sc_hd__o22ai_1 abstract view
.subckt sky130_fd_sc_hd__o22ai_1 A1 A2 B1 B2 VGND VNB VPB VPWR Y
.ends

* Black-box entry subcircuit for sky130_fd_sc_hd__decap_3 abstract view
.subckt sky130_fd_sc_hd__decap_3 VGND VNB VPB VPWR
.ends

* Black-box entry subcircuit for sky130_fd_sc_hd__decap_6 abstract view
.subckt sky130_fd_sc_hd__decap_6 VGND VNB VPB VPWR
.ends

* Black-box entry subcircuit for sky130_fd_sc_hd__buf_1 abstract view
.subckt sky130_fd_sc_hd__buf_1 A VGND VNB VPB VPWR X
.ends

* Black-box entry subcircuit for sky130_fd_sc_hd__mux2_1 abstract view
.subckt sky130_fd_sc_hd__mux2_1 A0 A1 S VGND VNB VPB VPWR X
.ends

* Black-box entry subcircuit for sky130_fd_sc_hd__o2111a_1 abstract view
.subckt sky130_fd_sc_hd__o2111a_1 A1 A2 B1 C1 D1 VGND VNB VPB VPWR X
.ends

* Black-box entry subcircuit for sky130_fd_sc_hd__clkbuf_1 abstract view
.subckt sky130_fd_sc_hd__clkbuf_1 A VGND VNB VPB VPWR X
.ends

* Black-box entry subcircuit for sky130_fd_sc_hd__a22o_1 abstract view
.subckt sky130_fd_sc_hd__a22o_1 A1 A2 B1 B2 VGND VNB VPB VPWR X
.ends

* Black-box entry subcircuit for sky130_fd_sc_hd__and2_1 abstract view
.subckt sky130_fd_sc_hd__and2_1 A B VGND VNB VPB VPWR X
.ends

* Black-box entry subcircuit for sky130_fd_sc_hd__nand3_1 abstract view
.subckt sky130_fd_sc_hd__nand3_1 A B C VGND VNB VPB VPWR Y
.ends

* Black-box entry subcircuit for sky130_fd_sc_hd__nand2_2 abstract view
.subckt sky130_fd_sc_hd__nand2_2 A B VGND VNB VPB VPWR Y
.ends

* Black-box entry subcircuit for sky130_fd_sc_hd__nor2_1 abstract view
.subckt sky130_fd_sc_hd__nor2_1 A B VGND VNB VPB VPWR Y
.ends

* Black-box entry subcircuit for sky130_fd_sc_hd__diode_2 abstract view
.subckt sky130_fd_sc_hd__diode_2 DIODE VGND VNB VPB VPWR
.ends

* Black-box entry subcircuit for sky130_fd_sc_hd__buf_12 abstract view
.subckt sky130_fd_sc_hd__buf_12 A VGND VNB VPB VPWR X
.ends

* Black-box entry subcircuit for sky130_fd_sc_hd__and3_1 abstract view
.subckt sky130_fd_sc_hd__and3_1 A B C VGND VNB VPB VPWR X
.ends

* Black-box entry subcircuit for sky130_fd_sc_hd__buf_2 abstract view
.subckt sky130_fd_sc_hd__buf_2 A VGND VNB VPB VPWR X
.ends

* Black-box entry subcircuit for sky130_fd_sc_hd__nand3_2 abstract view
.subckt sky130_fd_sc_hd__nand3_2 A B C VGND VNB VPB VPWR Y
.ends

* Black-box entry subcircuit for sky130_fd_sc_hd__clkbuf_16 abstract view
.subckt sky130_fd_sc_hd__clkbuf_16 A VGND VNB VPB VPWR X
.ends

* Black-box entry subcircuit for sky130_fd_sc_hd__o21a_1 abstract view
.subckt sky130_fd_sc_hd__o21a_1 A1 A2 B1 VGND VNB VPB VPWR X
.ends

* Black-box entry subcircuit for sky130_fd_sc_hd__a221oi_2 abstract view
.subckt sky130_fd_sc_hd__a221oi_2 A1 A2 B1 B2 C1 VGND VNB VPB VPWR Y
.ends

* Black-box entry subcircuit for sky130_fd_sc_hd__o211a_1 abstract view
.subckt sky130_fd_sc_hd__o211a_1 A1 A2 B1 C1 VGND VNB VPB VPWR X
.ends

* Black-box entry subcircuit for sky130_fd_sc_hd__a21bo_2 abstract view
.subckt sky130_fd_sc_hd__a21bo_2 A1 A2 B1_N VGND VNB VPB VPWR X
.ends

* Black-box entry subcircuit for sky130_fd_sc_hd__o221a_1 abstract view
.subckt sky130_fd_sc_hd__o221a_1 A1 A2 B1 B2 C1 VGND VNB VPB VPWR X
.ends

* Black-box entry subcircuit for sky130_fd_sc_hd__xnor2_4 abstract view
.subckt sky130_fd_sc_hd__xnor2_4 A B VGND VNB VPB VPWR Y
.ends

* Black-box entry subcircuit for sky130_fd_sc_hd__and3_2 abstract view
.subckt sky130_fd_sc_hd__and3_2 A B C VGND VNB VPB VPWR X
.ends

* Black-box entry subcircuit for sky130_fd_sc_hd__nor3_1 abstract view
.subckt sky130_fd_sc_hd__nor3_1 A B C VGND VNB VPB VPWR Y
.ends

* Black-box entry subcircuit for sky130_fd_sc_hd__a21oi_2 abstract view
.subckt sky130_fd_sc_hd__a21oi_2 A1 A2 B1 VGND VNB VPB VPWR Y
.ends

* Black-box entry subcircuit for sky130_fd_sc_hd__a22o_4 abstract view
.subckt sky130_fd_sc_hd__a22o_4 A1 A2 B1 B2 VGND VNB VPB VPWR X
.ends

* Black-box entry subcircuit for sky130_fd_sc_hd__and3_4 abstract view
.subckt sky130_fd_sc_hd__and3_4 A B C VGND VNB VPB VPWR X
.ends

* Black-box entry subcircuit for sky130_fd_sc_hd__a21oi_1 abstract view
.subckt sky130_fd_sc_hd__a21oi_1 A1 A2 B1 VGND VNB VPB VPWR Y
.ends

* Black-box entry subcircuit for sky130_fd_sc_hd__o21ai_4 abstract view
.subckt sky130_fd_sc_hd__o21ai_4 A1 A2 B1 VGND VNB VPB VPWR Y
.ends

* Black-box entry subcircuit for sky130_fd_sc_hd__nor2_2 abstract view
.subckt sky130_fd_sc_hd__nor2_2 A B VGND VNB VPB VPWR Y
.ends

* Black-box entry subcircuit for sky130_fd_sc_hd__a311o_1 abstract view
.subckt sky130_fd_sc_hd__a311o_1 A1 A2 A3 B1 C1 VGND VNB VPB VPWR X
.ends

* Black-box entry subcircuit for sky130_fd_sc_hd__a31o_1 abstract view
.subckt sky130_fd_sc_hd__a31o_1 A1 A2 A3 B1 VGND VNB VPB VPWR X
.ends

* Black-box entry subcircuit for sky130_fd_sc_hd__or2_4 abstract view
.subckt sky130_fd_sc_hd__or2_4 A B VGND VNB VPB VPWR X
.ends

* Black-box entry subcircuit for sky130_fd_sc_hd__a32o_2 abstract view
.subckt sky130_fd_sc_hd__a32o_2 A1 A2 A3 B1 B2 VGND VNB VPB VPWR X
.ends

* Black-box entry subcircuit for sky130_fd_sc_hd__inv_4 abstract view
.subckt sky130_fd_sc_hd__inv_4 A VGND VNB VPB VPWR Y
.ends

* Black-box entry subcircuit for sky130_fd_sc_hd__o32a_1 abstract view
.subckt sky130_fd_sc_hd__o32a_1 A1 A2 A3 B1 B2 VGND VNB VPB VPWR X
.ends

* Black-box entry subcircuit for sky130_fd_sc_hd__nor2_4 abstract view
.subckt sky130_fd_sc_hd__nor2_4 A B VGND VNB VPB VPWR Y
.ends

* Black-box entry subcircuit for sky130_fd_sc_hd__a21boi_1 abstract view
.subckt sky130_fd_sc_hd__a21boi_1 A1 A2 B1_N VGND VNB VPB VPWR Y
.ends

* Black-box entry subcircuit for sky130_fd_sc_hd__a211o_1 abstract view
.subckt sky130_fd_sc_hd__a211o_1 A1 A2 B1 C1 VGND VNB VPB VPWR X
.ends

* Black-box entry subcircuit for sky130_fd_sc_hd__xor2_1 abstract view
.subckt sky130_fd_sc_hd__xor2_1 A B VGND VNB VPB VPWR X
.ends

* Black-box entry subcircuit for sky130_fd_sc_hd__clkinvlp_2 abstract view
.subckt sky130_fd_sc_hd__clkinvlp_2 A VGND VNB VPB VPWR Y
.ends

* Black-box entry subcircuit for sky130_fd_sc_hd__clkbuf_8 abstract view
.subckt sky130_fd_sc_hd__clkbuf_8 A VGND VNB VPB VPWR X
.ends

* Black-box entry subcircuit for sky130_fd_sc_hd__inv_6 abstract view
.subckt sky130_fd_sc_hd__inv_6 A VGND VNB VPB VPWR Y
.ends

* Black-box entry subcircuit for sky130_fd_sc_hd__o21bai_4 abstract view
.subckt sky130_fd_sc_hd__o21bai_4 A1 A2 B1_N VGND VNB VPB VPWR Y
.ends

* Black-box entry subcircuit for sky130_fd_sc_hd__or3_1 abstract view
.subckt sky130_fd_sc_hd__or3_1 A B C VGND VNB VPB VPWR X
.ends

* Black-box entry subcircuit for sky130_fd_sc_hd__a21o_1 abstract view
.subckt sky130_fd_sc_hd__a21o_1 A1 A2 B1 VGND VNB VPB VPWR X
.ends

* Black-box entry subcircuit for sky130_fd_sc_hd__dlymetal6s2s_1 abstract view
.subckt sky130_fd_sc_hd__dlymetal6s2s_1 A VGND VNB VPB VPWR X
.ends

* Black-box entry subcircuit for sky130_fd_sc_hd__and2b_1 abstract view
.subckt sky130_fd_sc_hd__and2b_1 A_N B VGND VNB VPB VPWR X
.ends

* Black-box entry subcircuit for sky130_fd_sc_hd__and2_2 abstract view
.subckt sky130_fd_sc_hd__and2_2 A B VGND VNB VPB VPWR X
.ends

* Black-box entry subcircuit for sky130_fd_sc_hd__xor2_4 abstract view
.subckt sky130_fd_sc_hd__xor2_4 A B VGND VNB VPB VPWR X
.ends

* Black-box entry subcircuit for sky130_fd_sc_hd__or4b_2 abstract view
.subckt sky130_fd_sc_hd__or4b_2 A B C D_N VGND VNB VPB VPWR X
.ends

* Black-box entry subcircuit for sky130_fd_sc_hd__or4b_4 abstract view
.subckt sky130_fd_sc_hd__or4b_4 A B C D_N VGND VNB VPB VPWR X
.ends

* Black-box entry subcircuit for sky130_fd_sc_hd__and3b_1 abstract view
.subckt sky130_fd_sc_hd__and3b_1 A_N B C VGND VNB VPB VPWR X
.ends

* Black-box entry subcircuit for sky130_fd_sc_hd__xnor2_1 abstract view
.subckt sky130_fd_sc_hd__xnor2_1 A B VGND VNB VPB VPWR Y
.ends

* Black-box entry subcircuit for sky130_fd_sc_hd__buf_6 abstract view
.subckt sky130_fd_sc_hd__buf_6 A VGND VNB VPB VPWR X
.ends

* Black-box entry subcircuit for sky130_fd_sc_hd__clkbuf_2 abstract view
.subckt sky130_fd_sc_hd__clkbuf_2 A VGND VNB VPB VPWR X
.ends

* Black-box entry subcircuit for sky130_fd_sc_hd__o21bai_1 abstract view
.subckt sky130_fd_sc_hd__o21bai_1 A1 A2 B1_N VGND VNB VPB VPWR Y
.ends

* Black-box entry subcircuit for sky130_fd_sc_hd__dlygate4sd3_1 abstract view
.subckt sky130_fd_sc_hd__dlygate4sd3_1 A VGND VNB VPB VPWR X
.ends

* Black-box entry subcircuit for sky130_fd_sc_hd__nand3_4 abstract view
.subckt sky130_fd_sc_hd__nand3_4 A B C VGND VNB VPB VPWR Y
.ends

* Black-box entry subcircuit for sky130_fd_sc_hd__o211ai_1 abstract view
.subckt sky130_fd_sc_hd__o211ai_1 A1 A2 B1 C1 VGND VNB VPB VPWR Y
.ends

* Black-box entry subcircuit for sky130_fd_sc_hd__nand2_4 abstract view
.subckt sky130_fd_sc_hd__nand2_4 A B VGND VNB VPB VPWR Y
.ends

* Black-box entry subcircuit for sky130_fd_sc_hd__and4b_1 abstract view
.subckt sky130_fd_sc_hd__and4b_1 A_N B C D VGND VNB VPB VPWR X
.ends

* Black-box entry subcircuit for sky130_fd_sc_hd__o41a_1 abstract view
.subckt sky130_fd_sc_hd__o41a_1 A1 A2 A3 A4 B1 VGND VNB VPB VPWR X
.ends

* Black-box entry subcircuit for sky130_fd_sc_hd__dfxtp_4 abstract view
.subckt sky130_fd_sc_hd__dfxtp_4 CLK D VGND VNB VPB VPWR Q
.ends

* Black-box entry subcircuit for sky130_fd_sc_hd__a21bo_1 abstract view
.subckt sky130_fd_sc_hd__a21bo_1 A1 A2 B1_N VGND VNB VPB VPWR X
.ends

* Black-box entry subcircuit for sky130_fd_sc_hd__o21ba_1 abstract view
.subckt sky130_fd_sc_hd__o21ba_1 A1 A2 B1_N VGND VNB VPB VPWR X
.ends

.subckt egd_top_wrapper la_data_in_58_43[0] la_data_in_58_43[10] la_data_in_58_43[11]
+ la_data_in_58_43[12] la_data_in_58_43[13] la_data_in_58_43[14] la_data_in_58_43[15]
+ la_data_in_58_43[1] la_data_in_58_43[2] la_data_in_58_43[3] la_data_in_58_43[4]
+ la_data_in_58_43[5] la_data_in_58_43[6] la_data_in_58_43[7] la_data_in_58_43[8]
+ la_data_in_58_43[9] la_data_in_60_59[0] la_data_in_60_59[1] la_data_in_65 la_data_out_23_16[0]
+ la_data_out_23_16[1] la_data_out_23_16[2] la_data_out_23_16[3] la_data_out_23_16[4]
+ la_data_out_23_16[5] la_data_out_23_16[6] la_data_out_23_16[7] la_data_out_26_24[0]
+ la_data_out_26_24[1] la_data_out_26_24[2] la_data_out_30_27[0] la_data_out_30_27[1]
+ la_data_out_30_27[2] la_data_out_30_27[3] vccd1 vssd1 wb_clk_i
XTAP_188 vssd1 vccd1 sky130_fd_sc_hd__tapvpwrvgnd_1
XTAP_199 vssd1 vccd1 sky130_fd_sc_hd__tapvpwrvgnd_1
XFILLER_0_89_461 vssd1 vssd1 vccd1 vccd1 sky130_ef_sc_hd__decap_12
X_6914_ net35 _0317_ vssd1 vssd1 vccd1 vccd1 net30 sky130_fd_sc_hd__dfxtp_2
X_6845_ net43 _0248_ vssd1 vssd1 vccd1 vccd1 egd_top.BitStream_buffer.BS_buffer\[31\]
+ sky130_fd_sc_hd__dfxtp_1
XFILLER_0_37_509 vssd1 vssd1 vccd1 vccd1 sky130_ef_sc_hd__decap_12
XFILLER_0_43_81 vssd1 vssd1 vccd1 vccd1 sky130_ef_sc_hd__decap_12
XFILLER_0_91_125 vssd1 vssd1 vccd1 vccd1 sky130_ef_sc_hd__decap_12
X_3988_ _0473_ vssd1 vssd1 vccd1 vccd1 _0474_ sky130_fd_sc_hd__buf_4
XFILLER_0_64_339 vssd1 vssd1 vccd1 vccd1 sky130_ef_sc_hd__decap_12
XFILLER_0_64_328 vssd1 vssd1 vccd1 vccd1 sky130_fd_sc_hd__fill_1
X_6776_ net130 _0179_ vssd1 vssd1 vccd1 vccd1 egd_top.BitStream_buffer.pc_previous\[2\]
+ sky130_fd_sc_hd__dfxtp_1
XFILLER_0_9_455 vssd1 vssd1 vccd1 vccd1 sky130_ef_sc_hd__decap_12
XFILLER_0_91_169 vssd1 vssd1 vccd1 vccd1 sky130_ef_sc_hd__decap_12
X_5727_ _0708_ _0385_ _2199_ vssd1 vssd1 vccd1 vccd1 _2200_ sky130_fd_sc_hd__o21ai_1
XFILLER_0_17_255 vssd1 vssd1 vccd1 vccd1 sky130_fd_sc_hd__fill_1
XFILLER_0_45_553 vssd1 vssd1 vccd1 vccd1 sky130_fd_sc_hd__fill_2
X_5658_ egd_top.BitStream_buffer.BitStream_buffer_output\[3\] vssd1 vssd1 vccd1 vccd1
+ _2132_ sky130_fd_sc_hd__inv_2
X_4609_ _0334_ _0380_ vssd1 vssd1 vccd1 vccd1 _1091_ sky130_fd_sc_hd__nand2_1
XFILLER_0_13_461 vssd1 vssd1 vccd1 vccd1 sky130_fd_sc_hd__decap_4
X_5589_ _0634_ _3349_ vssd1 vssd1 vccd1 vccd1 _2063_ sky130_fd_sc_hd__or2_1
XFILLER_0_67_111 vssd1 vssd1 vccd1 vccd1 sky130_fd_sc_hd__fill_1
XFILLER_0_67_144 vssd1 vssd1 vccd1 vccd1 sky130_fd_sc_hd__fill_1
XFILLER_0_70_309 vssd1 vssd1 vccd1 vccd1 sky130_ef_sc_hd__decap_12
XFILLER_0_36_553 vssd1 vssd1 vccd1 vccd1 sky130_fd_sc_hd__fill_2
XFILLER_0_23_225 vssd1 vssd1 vccd1 vccd1 sky130_ef_sc_hd__decap_12
XFILLER_0_48_15 vssd1 vssd1 vccd1 vccd1 sky130_ef_sc_hd__decap_12
XFILLER_0_3_39 vssd1 vssd1 vccd1 vccd1 sky130_ef_sc_hd__decap_12
X_4960_ _3258_ _0804_ vssd1 vssd1 vccd1 vccd1 _1439_ sky130_fd_sc_hd__nand2_1
X_4891_ _1360_ _1364_ _1367_ _1370_ vssd1 vssd1 vccd1 vccd1 _1371_ sky130_fd_sc_hd__and4_1
X_3911_ _0396_ vssd1 vssd1 vccd1 vccd1 _0397_ sky130_fd_sc_hd__clkbuf_4
X_3842_ _0327_ vssd1 vssd1 vccd1 vccd1 _0328_ sky130_fd_sc_hd__clkbuf_4
XFILLER_0_13_51 vssd1 vssd1 vccd1 vccd1 sky130_fd_sc_hd__fill_1
XFILLER_0_73_169 vssd1 vssd1 vccd1 vccd1 sky130_fd_sc_hd__fill_1
XFILLER_0_13_84 vssd1 vssd1 vccd1 vccd1 sky130_ef_sc_hd__decap_12
X_6561_ _2894_ _2713_ vssd1 vssd1 vccd1 vccd1 _2895_ sky130_fd_sc_hd__nand2_1
XFILLER_0_39_391 vssd1 vssd1 vccd1 vccd1 sky130_fd_sc_hd__fill_1
X_5512_ _0482_ _0488_ _0535_ _0492_ _1986_ vssd1 vssd1 vccd1 vccd1 _1987_ sky130_fd_sc_hd__a221oi_1
XFILLER_0_6_436 vssd1 vssd1 vccd1 vccd1 sky130_fd_sc_hd__decap_8
X_3773_ _3306_ vssd1 vssd1 vccd1 vccd1 _3307_ sky130_fd_sc_hd__buf_4
XFILLER_0_42_523 vssd1 vssd1 vccd1 vccd1 sky130_fd_sc_hd__decap_8
XFILLER_0_89_55 vssd1 vssd1 vccd1 vccd1 sky130_fd_sc_hd__fill_1
XFILLER_0_14_247 vssd1 vssd1 vccd1 vccd1 sky130_fd_sc_hd__fill_1
X_6492_ _1652_ _2707_ _2827_ vssd1 vssd1 vccd1 vccd1 _2828_ sky130_fd_sc_hd__o21ai_2
XFILLER_0_42_545 vssd1 vssd1 vccd1 vccd1 sky130_fd_sc_hd__decap_8
X_5443_ _0554_ _3218_ _0745_ _3221_ vssd1 vssd1 vccd1 vccd1 _1918_ sky130_fd_sc_hd__o22ai_1
X_5374_ _0416_ _3095_ vssd1 vssd1 vccd1 vccd1 _1850_ sky130_fd_sc_hd__nand2_1
XFILLER_0_1_185 vssd1 vssd1 vccd1 vccd1 sky130_fd_sc_hd__fill_1
X_4325_ _3318_ _3281_ _3322_ _3285_ _0808_ vssd1 vssd1 vccd1 vccd1 _0809_ sky130_fd_sc_hd__a221oi_1
X_4256_ _0727_ _0731_ _0736_ _0740_ vssd1 vssd1 vccd1 vccd1 _0741_ sky130_fd_sc_hd__and4_1
XFILLER_0_38_81 vssd1 vssd1 vccd1 vccd1 sky130_fd_sc_hd__decap_3
X_4187_ _0671_ _3350_ vssd1 vssd1 vccd1 vccd1 _0672_ sky130_fd_sc_hd__or2_1
XFILLER_0_49_111 vssd1 vssd1 vccd1 vccd1 sky130_fd_sc_hd__fill_1
XFILLER_0_49_166 vssd1 vssd1 vccd1 vccd1 sky130_fd_sc_hd__fill_2
X_6828_ net182 _0231_ vssd1 vssd1 vccd1 vccd1 egd_top.BitStream_buffer.BS_buffer\[48\]
+ sky130_fd_sc_hd__dfxtp_1
XFILLER_0_92_445 vssd1 vssd1 vccd1 vccd1 sky130_ef_sc_hd__decap_12
XFILLER_0_64_158 vssd1 vssd1 vccd1 vccd1 sky130_fd_sc_hd__fill_2
XFILLER_0_9_274 vssd1 vssd1 vccd1 vccd1 sky130_fd_sc_hd__decap_6
XFILLER_0_92_489 vssd1 vssd1 vccd1 vccd1 sky130_ef_sc_hd__decap_12
X_6759_ net113 _0162_ vssd1 vssd1 vccd1 vccd1 egd_top.BitStream_buffer.BS_buffer\[94\]
+ sky130_fd_sc_hd__dfxtp_1
XFILLER_0_72_191 vssd1 vssd1 vccd1 vccd1 sky130_fd_sc_hd__decap_4
XFILLER_0_18_29 vssd1 vssd1 vccd1 vccd1 sky130_ef_sc_hd__decap_12
X_6657__145 clknet_1_1__leaf__2920_ vssd1 vssd1 vccd1 vccd1 net179 sky130_fd_sc_hd__inv_2
XFILLER_0_50_27 vssd1 vssd1 vccd1 vccd1 sky130_fd_sc_hd__fill_1
XFILLER_0_83_478 vssd1 vssd1 vccd1 vccd1 sky130_fd_sc_hd__fill_1
XFILLER_0_51_386 vssd1 vssd1 vccd1 vccd1 sky130_fd_sc_hd__decap_6
XFILLER_0_59_69 vssd1 vssd1 vccd1 vccd1 sky130_ef_sc_hd__decap_12
X_6692__21 clknet_1_1__leaf__2923_ vssd1 vssd1 vccd1 vccd1 net55 sky130_fd_sc_hd__inv_2
X_5090_ _1444_ _3289_ _3348_ _3293_ vssd1 vssd1 vccd1 vccd1 _1568_ sky130_fd_sc_hd__o22ai_1
X_4110_ egd_top.BitStream_buffer.BS_buffer\[13\] vssd1 vssd1 vccd1 vccd1 _0596_ sky130_fd_sc_hd__inv_2
XFILLER_0_75_57 vssd1 vssd1 vccd1 vccd1 sky130_ef_sc_hd__decap_12
X_4041_ _0526_ vssd1 vssd1 vccd1 vccd1 _0527_ sky130_fd_sc_hd__buf_1
XFILLER_0_78_228 vssd1 vssd1 vccd1 vccd1 sky130_fd_sc_hd__decap_4
X_5992_ net13 _0475_ _2415_ vssd1 vssd1 vccd1 vccd1 _2435_ sky130_fd_sc_hd__mux2_1
XFILLER_0_93_209 vssd1 vssd1 vccd1 vccd1 sky130_ef_sc_hd__decap_12
X_4943_ _1410_ _1413_ _1417_ _1421_ vssd1 vssd1 vccd1 vccd1 _1422_ sky130_fd_sc_hd__and4_1
XFILLER_0_24_83 vssd1 vssd1 vccd1 vccd1 sky130_fd_sc_hd__fill_1
XFILLER_0_24_94 vssd1 vssd1 vccd1 vccd1 sky130_fd_sc_hd__decap_8
X_4874_ _0394_ _0386_ _1353_ vssd1 vssd1 vccd1 vccd1 _1354_ sky130_fd_sc_hd__o21ai_1
XFILLER_0_6_200 vssd1 vssd1 vccd1 vccd1 sky130_fd_sc_hd__decap_8
XFILLER_0_46_158 vssd1 vssd1 vccd1 vccd1 sky130_fd_sc_hd__fill_1
XFILLER_0_15_512 vssd1 vssd1 vccd1 vccd1 sky130_fd_sc_hd__fill_2
X_3825_ _3358_ vssd1 vssd1 vccd1 vccd1 _3359_ sky130_fd_sc_hd__buf_1
XFILLER_0_27_361 vssd1 vssd1 vccd1 vccd1 sky130_fd_sc_hd__fill_2
XFILLER_0_34_309 vssd1 vssd1 vccd1 vccd1 sky130_fd_sc_hd__decap_6
X_6544_ _2831_ _2877_ vssd1 vssd1 vccd1 vccd1 _2878_ sky130_fd_sc_hd__nand2_1
XFILLER_0_6_277 vssd1 vssd1 vccd1 vccd1 sky130_fd_sc_hd__fill_2
X_3756_ egd_top.BitStream_buffer.BS_buffer\[93\] vssd1 vssd1 vccd1 vccd1 _3290_ sky130_fd_sc_hd__clkbuf_4
XFILLER_0_40_60 vssd1 vssd1 vccd1 vccd1 sky130_fd_sc_hd__fill_2
X_6475_ _2812_ _2815_ vssd1 vssd1 vccd1 vccd1 _2816_ sky130_fd_sc_hd__nand2_1
XFILLER_0_71_3 vssd1 vssd1 vccd1 vccd1 sky130_ef_sc_hd__decap_12
XFILLER_0_2_450 vssd1 vssd1 vccd1 vccd1 sky130_fd_sc_hd__decap_3
X_5426_ _3128_ _3149_ vssd1 vssd1 vccd1 vccd1 _1901_ sky130_fd_sc_hd__nand2_1
X_3687_ _3220_ vssd1 vssd1 vccd1 vccd1 _3221_ sky130_fd_sc_hd__clkbuf_4
X_5357_ _0338_ _0429_ vssd1 vssd1 vccd1 vccd1 _1833_ sky130_fd_sc_hd__nand2_1
X_5288_ _0867_ _0561_ _1762_ _1763_ _1764_ vssd1 vssd1 vccd1 vccd1 _1765_ sky130_fd_sc_hd__o2111a_1
X_4308_ _0607_ _3212_ _0577_ _3215_ _0791_ vssd1 vssd1 vccd1 vccd1 _0792_ sky130_fd_sc_hd__a221oi_1
X_4239_ _0474_ _0479_ vssd1 vssd1 vccd1 vccd1 _0724_ sky130_fd_sc_hd__nand2_1
XFILLER_0_65_434 vssd1 vssd1 vccd1 vccd1 sky130_ef_sc_hd__decap_12
XFILLER_0_92_275 vssd1 vssd1 vccd1 vccd1 sky130_ef_sc_hd__decap_12
XFILLER_0_80_448 vssd1 vssd1 vccd1 vccd1 sky130_fd_sc_hd__fill_1
XFILLER_0_18_394 vssd1 vssd1 vccd1 vccd1 sky130_fd_sc_hd__decap_3
XFILLER_0_33_320 vssd1 vssd1 vccd1 vccd1 sky130_fd_sc_hd__fill_2
XFILLER_0_21_515 vssd1 vssd1 vccd1 vccd1 sky130_ef_sc_hd__decap_12
XFILLER_0_33_375 vssd1 vssd1 vccd1 vccd1 sky130_fd_sc_hd__decap_3
XFILLER_0_29_39 vssd1 vssd1 vccd1 vccd1 sky130_ef_sc_hd__decap_12
XFILLER_0_45_27 vssd1 vssd1 vccd1 vccd1 sky130_ef_sc_hd__decap_12
XFILLER_0_61_15 vssd1 vssd1 vccd1 vccd1 sky130_ef_sc_hd__decap_12
XFILLER_0_0_29 vssd1 vssd1 vccd1 vccd1 sky130_fd_sc_hd__decap_6
XFILLER_0_68_283 vssd1 vssd1 vccd1 vccd1 sky130_fd_sc_hd__decap_6
XFILLER_0_68_261 vssd1 vssd1 vccd1 vccd1 sky130_fd_sc_hd__fill_1
X_6729__55 clknet_1_1__leaf__2926_ vssd1 vssd1 vccd1 vccd1 net89 sky130_fd_sc_hd__inv_2
XFILLER_0_56_445 vssd1 vssd1 vccd1 vccd1 sky130_fd_sc_hd__decap_8
XFILLER_0_28_169 vssd1 vssd1 vccd1 vccd1 sky130_fd_sc_hd__fill_1
XFILLER_0_9_27 vssd1 vssd1 vccd1 vccd1 sky130_ef_sc_hd__decap_12
X_6744__69 clknet_1_0__leaf__2927_ vssd1 vssd1 vccd1 vccd1 net103 sky130_fd_sc_hd__inv_2
X_4590_ _1060_ _1065_ _1068_ _1071_ vssd1 vssd1 vccd1 vccd1 _1072_ sky130_fd_sc_hd__and4_1
X_3610_ egd_top.BitStream_buffer.BS_buffer\[78\] vssd1 vssd1 vccd1 vccd1 _3144_ sky130_fd_sc_hd__clkbuf_4
XFILLER_0_3_225 vssd1 vssd1 vccd1 vccd1 sky130_fd_sc_hd__decap_6
X_3541_ _3074_ vssd1 vssd1 vccd1 vccd1 _3075_ sky130_fd_sc_hd__buf_4
XFILLER_0_12_526 vssd1 vssd1 vccd1 vccd1 sky130_fd_sc_hd__decap_6
XFILLER_0_10_41 vssd1 vssd1 vccd1 vccd1 sky130_fd_sc_hd__decap_8
XFILLER_0_3_258 vssd1 vssd1 vccd1 vccd1 sky130_fd_sc_hd__decap_3
X_3472_ _3018_ vssd1 vssd1 vccd1 vccd1 _0310_ sky130_fd_sc_hd__clkbuf_1
XFILLER_0_10_85 vssd1 vssd1 vccd1 vccd1 sky130_ef_sc_hd__decap_12
X_6260_ _2617_ vssd1 vssd1 vccd1 vccd1 _0175_ sky130_fd_sc_hd__clkbuf_1
X_6191_ net15 _3335_ _2557_ vssd1 vssd1 vccd1 vccd1 _2572_ sky130_fd_sc_hd__mux2_1
X_5211_ _3271_ _3282_ _3274_ _3318_ vssd1 vssd1 vccd1 vccd1 _1688_ sky130_fd_sc_hd__a22o_1
X_5142_ _0474_ _0363_ vssd1 vssd1 vccd1 vccd1 _1620_ sky130_fd_sc_hd__nand2_1
X_5073_ _0607_ _3184_ _0577_ _3187_ _1550_ vssd1 vssd1 vccd1 vccd1 _1551_ sky130_fd_sc_hd__a221oi_1
X_4024_ _0508_ _0509_ vssd1 vssd1 vccd1 vccd1 _0510_ sky130_fd_sc_hd__nand2_1
XFILLER_0_66_209 vssd1 vssd1 vccd1 vccd1 sky130_fd_sc_hd__fill_1
XFILLER_0_59_272 vssd1 vssd1 vccd1 vccd1 sky130_fd_sc_hd__decap_8
X_5975_ _2422_ _2423_ vssd1 vssd1 vccd1 vccd1 _2424_ sky130_fd_sc_hd__and2_1
X_4926_ egd_top.BitStream_buffer.BitStream_buffer_output\[9\] vssd1 vssd1 vccd1 vccd1
+ _1406_ sky130_fd_sc_hd__inv_2
XFILLER_0_47_445 vssd1 vssd1 vccd1 vccd1 sky130_fd_sc_hd__decap_3
XFILLER_0_74_253 vssd1 vssd1 vccd1 vccd1 sky130_fd_sc_hd__fill_2
X_4857_ _3365_ _3019_ vssd1 vssd1 vccd1 vccd1 _1337_ sky130_fd_sc_hd__nand2_1
XFILLER_0_51_81 vssd1 vssd1 vccd1 vccd1 sky130_ef_sc_hd__decap_12
XFILLER_0_62_437 vssd1 vssd1 vccd1 vccd1 sky130_ef_sc_hd__decap_12
X_3808_ _3340_ _3341_ vssd1 vssd1 vccd1 vccd1 _3342_ sky130_fd_sc_hd__nand2_1
XFILLER_0_34_128 vssd1 vssd1 vccd1 vccd1 sky130_fd_sc_hd__decap_3
X_6527_ _2831_ _2859_ _2829_ vssd1 vssd1 vccd1 vccd1 _2862_ sky130_fd_sc_hd__nand3_1
X_4788_ _0750_ _0545_ _1266_ _1267_ _1268_ vssd1 vssd1 vccd1 vccd1 _1269_ sky130_fd_sc_hd__o2111a_1
XFILLER_0_70_470 vssd1 vssd1 vccd1 vccd1 sky130_fd_sc_hd__decap_6
XFILLER_0_15_397 vssd1 vssd1 vccd1 vccd1 sky130_fd_sc_hd__fill_1
X_3739_ _3122_ _3228_ vssd1 vssd1 vccd1 vccd1 _3273_ sky130_fd_sc_hd__and2_1
X_6458_ _2796_ _2798_ vssd1 vssd1 vccd1 vccd1 _2799_ sky130_fd_sc_hd__nand2_1
XFILLER_0_30_334 vssd1 vssd1 vccd1 vccd1 sky130_fd_sc_hd__decap_4
XFILLER_0_30_356 vssd1 vssd1 vccd1 vccd1 sky130_fd_sc_hd__fill_1
X_5409_ _0516_ _0561_ _1882_ _1883_ _1884_ vssd1 vssd1 vccd1 vccd1 _1885_ sky130_fd_sc_hd__o2111a_1
X_6389_ _2727_ _2731_ _2710_ vssd1 vssd1 vccd1 vccd1 _2732_ sky130_fd_sc_hd__nand3_1
XFILLER_0_85_529 vssd1 vssd1 vccd1 vccd1 sky130_ef_sc_hd__decap_12
XFILLER_0_38_401 vssd1 vssd1 vccd1 vccd1 sky130_fd_sc_hd__decap_6
XFILLER_0_25_117 vssd1 vssd1 vccd1 vccd1 sky130_fd_sc_hd__decap_8
XFILLER_0_0_228 vssd1 vssd1 vccd1 vccd1 sky130_fd_sc_hd__decap_8
XFILLER_0_21_334 vssd1 vssd1 vccd1 vccd1 sky130_fd_sc_hd__fill_2
XTAP_507 vssd1 vccd1 sky130_fd_sc_hd__tapvpwrvgnd_1
XTAP_518 vssd1 vccd1 sky130_fd_sc_hd__tapvpwrvgnd_1
XTAP_529 vssd1 vccd1 sky130_fd_sc_hd__tapvpwrvgnd_1
XFILLER_0_56_15 vssd1 vssd1 vccd1 vccd1 sky130_ef_sc_hd__decap_12
X_5760_ _0329_ _0523_ _0376_ _0527_ _2232_ vssd1 vssd1 vccd1 vccd1 _2233_ sky130_fd_sc_hd__a221oi_1
XFILLER_0_8_317 vssd1 vssd1 vccd1 vccd1 sky130_fd_sc_hd__fill_1
XFILLER_0_56_220 vssd1 vssd1 vccd1 vccd1 sky130_fd_sc_hd__fill_1
X_4711_ _1188_ _1189_ _1190_ _1191_ vssd1 vssd1 vccd1 vccd1 _1192_ sky130_fd_sc_hd__and4_1
X_5691_ _3257_ _3282_ vssd1 vssd1 vccd1 vccd1 _2164_ sky130_fd_sc_hd__nand2_1
XFILLER_0_56_253 vssd1 vssd1 vccd1 vccd1 sky130_fd_sc_hd__decap_6
XFILLER_0_56_264 vssd1 vssd1 vccd1 vccd1 sky130_ef_sc_hd__decap_12
X_4642_ _0474_ _0531_ vssd1 vssd1 vccd1 vccd1 _1124_ sky130_fd_sc_hd__nand2_1
XFILLER_0_71_212 vssd1 vssd1 vccd1 vccd1 sky130_ef_sc_hd__decap_12
XFILLER_0_4_501 vssd1 vssd1 vccd1 vccd1 sky130_ef_sc_hd__decap_12
XFILLER_0_56_286 vssd1 vssd1 vccd1 vccd1 sky130_fd_sc_hd__decap_4
X_4573_ _3025_ _3198_ _3028_ _3201_ _1054_ vssd1 vssd1 vccd1 vccd1 _1055_ sky130_fd_sc_hd__a221oi_1
XFILLER_0_21_95 vssd1 vssd1 vccd1 vccd1 sky130_ef_sc_hd__decap_12
XFILLER_0_24_194 vssd1 vssd1 vccd1 vccd1 sky130_fd_sc_hd__fill_2
X_3524_ _2961_ egd_top.BitStream_buffer.pc\[1\] vssd1 vssd1 vccd1 vccd1 _3058_ sky130_fd_sc_hd__nand2_2
X_6312_ _2654_ _1282_ vssd1 vssd1 vccd1 vccd1 _2655_ sky130_fd_sc_hd__nand2_1
XFILLER_0_12_378 vssd1 vssd1 vccd1 vccd1 sky130_fd_sc_hd__fill_1
XFILLER_0_12_356 vssd1 vssd1 vccd1 vccd1 sky130_fd_sc_hd__decap_8
X_6243_ _2607_ vssd1 vssd1 vccd1 vccd1 _0180_ sky130_fd_sc_hd__inv_2
X_3455_ _2978_ _3004_ vssd1 vssd1 vccd1 vccd1 _3005_ sky130_fd_sc_hd__or2_1
X_6174_ _2560_ _2554_ vssd1 vssd1 vccd1 vccd1 _2561_ sky130_fd_sc_hd__and2_1
X_3386_ _2939_ _2941_ vssd1 vssd1 vccd1 vccd1 _2942_ sky130_fd_sc_hd__nor2_1
X_5125_ _0399_ _0461_ vssd1 vssd1 vccd1 vccd1 _1603_ sky130_fd_sc_hd__nand2_1
XFILLER_0_34_3 vssd1 vssd1 vccd1 vccd1 sky130_ef_sc_hd__decap_12
X_5056_ _3259_ _3068_ _3251_ _3075_ _1533_ vssd1 vssd1 vccd1 vccd1 _1534_ sky130_fd_sc_hd__a221oi_1
X_4007_ egd_top.BitStream_buffer.BS_buffer\[18\] vssd1 vssd1 vccd1 vccd1 _0493_ sky130_fd_sc_hd__clkbuf_4
XFILLER_0_79_378 vssd1 vssd1 vccd1 vccd1 sky130_fd_sc_hd__decap_6
XFILLER_0_67_529 vssd1 vssd1 vccd1 vccd1 sky130_ef_sc_hd__decap_12
XFILLER_0_39_209 vssd1 vssd1 vccd1 vccd1 sky130_fd_sc_hd__decap_8
X_5958_ _2411_ vssd1 vssd1 vccd1 vccd1 _0265_ sky130_fd_sc_hd__clkbuf_1
X_4909_ _1377_ _1380_ _1384_ _1388_ vssd1 vssd1 vccd1 vccd1 _1389_ sky130_fd_sc_hd__and4_1
X_5889_ _0723_ _0560_ _2358_ _2359_ _2360_ vssd1 vssd1 vccd1 vccd1 _2361_ sky130_fd_sc_hd__o2111a_1
XFILLER_0_35_426 vssd1 vssd1 vccd1 vccd1 sky130_ef_sc_hd__decap_12
X_6708__36 clknet_1_0__leaf__2924_ vssd1 vssd1 vccd1 vccd1 net70 sky130_fd_sc_hd__inv_2
XFILLER_0_47_286 vssd1 vssd1 vccd1 vccd1 sky130_fd_sc_hd__decap_4
XFILLER_0_7_361 vssd1 vssd1 vccd1 vccd1 sky130_ef_sc_hd__decap_12
XFILLER_0_62_289 vssd1 vssd1 vccd1 vccd1 sky130_fd_sc_hd__fill_1
XFILLER_0_15_194 vssd1 vssd1 vccd1 vccd1 sky130_fd_sc_hd__fill_2
XFILLER_0_30_131 vssd1 vssd1 vccd1 vccd1 sky130_fd_sc_hd__decap_8
XFILLER_0_30_197 vssd1 vssd1 vccd1 vccd1 sky130_fd_sc_hd__decap_6
XFILLER_0_26_29 vssd1 vssd1 vccd1 vccd1 sky130_ef_sc_hd__decap_12
XFILLER_0_85_337 vssd1 vssd1 vccd1 vccd1 sky130_ef_sc_hd__decap_12
XFILLER_0_38_253 vssd1 vssd1 vccd1 vccd1 sky130_ef_sc_hd__decap_12
XFILLER_0_53_201 vssd1 vssd1 vccd1 vccd1 sky130_ef_sc_hd__decap_12
XFILLER_0_53_223 vssd1 vssd1 vccd1 vccd1 sky130_fd_sc_hd__fill_1
XFILLER_0_53_278 vssd1 vssd1 vccd1 vccd1 sky130_fd_sc_hd__fill_2
XANTENNA_5 _2369_ vssd1 vssd1 vccd1 vccd1 sky130_fd_sc_hd__diode_2
XTAP_315 vssd1 vccd1 sky130_fd_sc_hd__tapvpwrvgnd_1
XTAP_304 vssd1 vccd1 sky130_fd_sc_hd__tapvpwrvgnd_1
XFILLER_0_67_69 vssd1 vssd1 vccd1 vccd1 sky130_ef_sc_hd__decap_12
XTAP_326 vssd1 vccd1 sky130_fd_sc_hd__tapvpwrvgnd_1
XTAP_337 vssd1 vccd1 sky130_fd_sc_hd__tapvpwrvgnd_1
XTAP_348 vssd1 vccd1 sky130_fd_sc_hd__tapvpwrvgnd_1
XTAP_359 vssd1 vccd1 sky130_fd_sc_hd__tapvpwrvgnd_1
XFILLER_0_83_57 vssd1 vssd1 vccd1 vccd1 sky130_ef_sc_hd__decap_12
XFILLER_0_88_153 vssd1 vssd1 vccd1 vccd1 sky130_ef_sc_hd__decap_12
X_6861_ net59 _0264_ vssd1 vssd1 vccd1 vccd1 egd_top.BitStream_buffer.BS_buffer\[15\]
+ sky130_fd_sc_hd__dfxtp_2
XFILLER_0_88_197 vssd1 vssd1 vccd1 vccd1 sky130_ef_sc_hd__decap_12
XFILLER_0_57_540 vssd1 vssd1 vccd1 vccd1 sky130_ef_sc_hd__decap_12
X_6792_ net146 _0195_ vssd1 vssd1 vccd1 vccd1 egd_top.BitStream_buffer.BS_buffer\[100\]
+ sky130_fd_sc_hd__dfxtp_1
X_5812_ _2280_ _2281_ _2282_ _2283_ vssd1 vssd1 vccd1 vccd1 _2284_ sky130_fd_sc_hd__and4_1
X_5743_ _3085_ _0449_ _3057_ _0453_ _2215_ vssd1 vssd1 vccd1 vccd1 _2216_ sky130_fd_sc_hd__a221oi_1
X_5674_ _2135_ _2138_ _2142_ _2146_ vssd1 vssd1 vccd1 vccd1 _2147_ sky130_fd_sc_hd__and4_1
XFILLER_0_44_256 vssd1 vssd1 vccd1 vccd1 sky130_fd_sc_hd__decap_4
X_4625_ _0403_ _0417_ vssd1 vssd1 vccd1 vccd1 _1107_ sky130_fd_sc_hd__nand2_1
XFILLER_0_25_470 vssd1 vssd1 vccd1 vccd1 sky130_fd_sc_hd__decap_4
XFILLER_0_32_418 vssd1 vssd1 vccd1 vccd1 sky130_fd_sc_hd__fill_2
XFILLER_0_25_492 vssd1 vssd1 vccd1 vccd1 sky130_fd_sc_hd__fill_1
X_4556_ _3128_ _3076_ vssd1 vssd1 vccd1 vccd1 _1038_ sky130_fd_sc_hd__nand2_1
X_3507_ net10 _3044_ _3006_ vssd1 vssd1 vccd1 vccd1 _3045_ sky130_fd_sc_hd__mux2_1
X_4487_ _0371_ _0353_ vssd1 vssd1 vccd1 vccd1 _0970_ sky130_fd_sc_hd__nand2_1
X_3438_ _2949_ _2951_ vssd1 vssd1 vccd1 vccd1 _2991_ sky130_fd_sc_hd__nor2_1
X_6226_ egd_top.BitStream_buffer.pc_previous\[3\] egd_top.BitStream_buffer.exp_golomb_len\[3\]
+ vssd1 vssd1 vccd1 vccd1 _2598_ sky130_fd_sc_hd__or2_1
XTAP_871 vssd1 vccd1 sky130_fd_sc_hd__tapvpwrvgnd_1
XTAP_860 vssd1 vccd1 sky130_fd_sc_hd__tapvpwrvgnd_1
X_6157_ _2548_ vssd1 vssd1 vccd1 vccd1 _0203_ sky130_fd_sc_hd__clkbuf_1