*SPEF "ieee 1481-1999"
*DESIGN "R4_butter"
*DATE "11:11:11 Fri 11 11, 1111"
*VENDOR "OpenRCX"
*PROGRAM "Parallel Extraction"
*VERSION "1.0"
*DESIGN_FLOW "NAME_SCOPE LOCAL" "PIN_CAP NONE"
*DIVIDER /
*DELIMITER :
*BUS_DELIMITER []
*T_UNIT 1 NS
*C_UNIT 1 PF
*R_UNIT 1 OHM
*L_UNIT 1 HENRY

*NAME_MAP
*1 Xio[0]
*2 net23
*3 net24
*4 net25
*5 Xro[0]
*6 net20
*7 net21
*8 net22
*9 c1
*10 c2
*11 c3
*12 net12
*13 net13
*14 net14
*15 net15
*16 net16
*17 net17
*18 net18
*19 net19
*22 xi0[0]
*23 xi0[1]
*24 xi0[2]
*25 xi0[3]
*26 xi1[0]
*27 xi1[1]
*28 xi1[2]
*29 xi1[3]
*30 xi2[0]
*31 xi2[1]
*32 xi2[2]
*33 xi2[3]
*34 xi3[0]
*35 xi3[1]
*36 xi3[2]
*37 xi3[3]
*38 xr0[0]
*39 xr0[1]
*40 xr0[2]
*41 xr0[3]
*42 xr1[0]
*43 xr1[1]
*44 xr1[2]
*45 xr1[3]
*46 xr2[0]
*47 xr2[1]
*48 xr2[2]
*49 xr2[3]
*50 xr3[0]
*51 xr3[1]
*52 xr3[2]
*53 xr3[3]
*54 _00_
*55 _01_
*56 _02_
*57 _03_
*58 _04_
*59 _05_
*60 net1
*61 net10
*62 net11
*63 net2
*64 net3
*65 net4
*66 net5
*67 net6
*68 net7
*69 net8
*70 net9
*71 FILLER_0_109
*72 FILLER_0_113
*73 FILLER_0_118
*74 FILLER_0_130
*75 FILLER_0_138
*76 FILLER_0_141
*77 FILLER_0_153
*78 FILLER_0_161
*79 FILLER_0_165
*80 FILLER_0_169
*81 FILLER_0_18
*82 FILLER_0_181
*83 FILLER_0_193
*84 FILLER_0_197
*85 FILLER_0_209
*86 FILLER_0_214
*87 FILLER_0_222
*88 FILLER_0_225
*89 FILLER_0_237
*90 FILLER_0_249
*91 FILLER_0_253
*92 FILLER_0_259
*93 FILLER_0_26
*94 FILLER_0_263
*95 FILLER_0_275
*96 FILLER_0_279
*97 FILLER_0_281
*98 FILLER_0_29
*99 FILLER_0_293
*100 FILLER_0_3
*101 FILLER_0_305
*102 FILLER_0_309
*103 FILLER_0_314
*104 FILLER_0_326
*105 FILLER_0_334
*106 FILLER_0_337
*107 FILLER_0_349
*108 FILLER_0_354
*109 FILLER_0_361
*110 FILLER_0_365
*111 FILLER_0_41
*112 FILLER_0_53
*113 FILLER_0_57
*114 FILLER_0_63
*115 FILLER_0_67
*116 FILLER_0_79
*117 FILLER_0_83
*118 FILLER_0_85
*119 FILLER_0_97
*120 FILLER_10_109
*121 FILLER_10_121
*122 FILLER_10_133
*123 FILLER_10_139
*124 FILLER_10_141
*125 FILLER_10_15
*126 FILLER_10_153
*127 FILLER_10_165
*128 FILLER_10_177
*129 FILLER_10_189
*130 FILLER_10_195
*131 FILLER_10_197
*132 FILLER_10_209
*133 FILLER_10_221
*134 FILLER_10_233
*135 FILLER_10_245
*136 FILLER_10_251
*137 FILLER_10_253
*138 FILLER_10_265
*139 FILLER_10_27
*140 FILLER_10_277
*141 FILLER_10_289
*142 FILLER_10_29
*143 FILLER_10_3
*144 FILLER_10_301
*145 FILLER_10_307
*146 FILLER_10_309
*147 FILLER_10_321
*148 FILLER_10_333
*149 FILLER_10_345
*150 FILLER_10_360
*151 FILLER_10_365
*152 FILLER_10_41
*153 FILLER_10_53
*154 FILLER_10_65
*155 FILLER_10_77
*156 FILLER_10_83
*157 FILLER_10_85
*158 FILLER_10_97
*159 FILLER_11_105
*160 FILLER_11_111
*161 FILLER_11_113
*162 FILLER_11_125
*163 FILLER_11_137
*164 FILLER_11_149
*165 FILLER_11_15
*166 FILLER_11_161
*167 FILLER_11_167
*168 FILLER_11_169
*169 FILLER_11_181
*170 FILLER_11_193
*171 FILLER_11_205
*172 FILLER_11_217
*173 FILLER_11_223
*174 FILLER_11_225
*175 FILLER_11_237
*176 FILLER_11_249
*177 FILLER_11_261
*178 FILLER_11_27
*179 FILLER_11_273
*180 FILLER_11_279
*181 FILLER_11_281
*182 FILLER_11_293
*183 FILLER_11_3
*184 FILLER_11_305
*185 FILLER_11_317
*186 FILLER_11_329
*187 FILLER_11_335
*188 FILLER_11_337
*189 FILLER_11_349
*190 FILLER_11_355
*191 FILLER_11_366
*192 FILLER_11_39
*193 FILLER_11_51
*194 FILLER_11_55
*195 FILLER_11_57
*196 FILLER_11_69
*197 FILLER_11_81
*198 FILLER_11_93
*199 FILLER_12_109
*200 FILLER_12_121
*201 FILLER_12_133
*202 FILLER_12_139
*203 FILLER_12_141
*204 FILLER_12_15
*205 FILLER_12_153
*206 FILLER_12_165
*207 FILLER_12_177
*208 FILLER_12_189
*209 FILLER_12_195
*210 FILLER_12_197
*211 FILLER_12_209
*212 FILLER_12_221
*213 FILLER_12_233
*214 FILLER_12_245
*215 FILLER_12_251
*216 FILLER_12_253
*217 FILLER_12_265
*218 FILLER_12_27
*219 FILLER_12_277
*220 FILLER_12_289
*221 FILLER_12_29
*222 FILLER_12_3
*223 FILLER_12_301
*224 FILLER_12_307
*225 FILLER_12_309
*226 FILLER_12_321
*227 FILLER_12_333
*228 FILLER_12_345
*229 FILLER_12_357
*230 FILLER_12_362
*231 FILLER_12_365
*232 FILLER_12_41
*233 FILLER_12_53
*234 FILLER_12_65
*235 FILLER_12_77
*236 FILLER_12_83
*237 FILLER_12_85
*238 FILLER_12_97
*239 FILLER_13_105
*240 FILLER_13_111
*241 FILLER_13_113
*242 FILLER_13_125
*243 FILLER_13_137
*244 FILLER_13_149
*245 FILLER_13_15
*246 FILLER_13_161
*247 FILLER_13_167
*248 FILLER_13_169
*249 FILLER_13_181
*250 FILLER_13_193
*251 FILLER_13_205
*252 FILLER_13_217
*253 FILLER_13_223
*254 FILLER_13_225
*255 FILLER_13_237
*256 FILLER_13_249
*257 FILLER_13_261
*258 FILLER_13_27
*259 FILLER_13_273
*260 FILLER_13_279
*261 FILLER_13_281
*262 FILLER_13_293
*263 FILLER_13_3
*264 FILLER_13_305
*265 FILLER_13_317
*266 FILLER_13_329
*267 FILLER_13_335
*268 FILLER_13_337
*269 FILLER_13_349
*270 FILLER_13_355
*271 FILLER_13_363
*272 FILLER_13_367
*273 FILLER_13_39
*274 FILLER_13_51
*275 FILLER_13_55
*276 FILLER_13_57
*277 FILLER_13_69
*278 FILLER_13_81
*279 FILLER_13_93
*280 FILLER_14_109
*281 FILLER_14_121
*282 FILLER_14_133
*283 FILLER_14_139
*284 FILLER_14_141
*285 FILLER_14_15
*286 FILLER_14_153
*287 FILLER_14_165
*288 FILLER_14_177
*289 FILLER_14_189
*290 FILLER_14_195
*291 FILLER_14_197
*292 FILLER_14_209
*293 FILLER_14_221
*294 FILLER_14_233
*295 FILLER_14_245
*296 FILLER_14_251
*297 FILLER_14_253
*298 FILLER_14_265
*299 FILLER_14_27
*300 FILLER_14_277
*301 FILLER_14_289
*302 FILLER_14_29
*303 FILLER_14_3
*304 FILLER_14_301
*305 FILLER_14_307
*306 FILLER_14_309
*307 FILLER_14_321
*308 FILLER_14_333
*309 FILLER_14_345
*310 FILLER_14_357
*311 FILLER_14_362
*312 FILLER_14_365
*313 FILLER_14_41
*314 FILLER_14_53
*315 FILLER_14_65
*316 FILLER_14_77
*317 FILLER_14_83
*318 FILLER_14_85
*319 FILLER_14_97
*320 FILLER_15_105
*321 FILLER_15_111
*322 FILLER_15_113
*323 FILLER_15_125
*324 FILLER_15_137
*325 FILLER_15_149
*326 FILLER_15_15
*327 FILLER_15_161
*328 FILLER_15_167
*329 FILLER_15_169
*330 FILLER_15_181
*331 FILLER_15_193
*332 FILLER_15_205
*333 FILLER_15_217
*334 FILLER_15_223
*335 FILLER_15_225
*336 FILLER_15_237
*337 FILLER_15_249
*338 FILLER_15_261
*339 FILLER_15_27
*340 FILLER_15_273
*341 FILLER_15_279
*342 FILLER_15_281
*343 FILLER_15_293
*344 FILLER_15_3
*345 FILLER_15_305
*346 FILLER_15_317
*347 FILLER_15_329
*348 FILLER_15_335
*349 FILLER_15_337
*350 FILLER_15_349
*351 FILLER_15_361
*352 FILLER_15_367
*353 FILLER_15_39
*354 FILLER_15_51
*355 FILLER_15_55
*356 FILLER_15_57
*357 FILLER_15_69
*358 FILLER_15_81
*359 FILLER_15_93
*360 FILLER_16_109
*361 FILLER_16_121
*362 FILLER_16_133
*363 FILLER_16_139
*364 FILLER_16_141
*365 FILLER_16_15
*366 FILLER_16_153
*367 FILLER_16_165
*368 FILLER_16_177
*369 FILLER_16_189
*370 FILLER_16_195
*371 FILLER_16_197
*372 FILLER_16_209
*373 FILLER_16_221
*374 FILLER_16_233
*375 FILLER_16_245
*376 FILLER_16_251
*377 FILLER_16_253
*378 FILLER_16_265
*379 FILLER_16_27
*380 FILLER_16_277
*381 FILLER_16_289
*382 FILLER_16_29
*383 FILLER_16_3
*384 FILLER_16_301
*385 FILLER_16_307
*386 FILLER_16_309
*387 FILLER_16_321
*388 FILLER_16_333
*389 FILLER_16_345
*390 FILLER_16_357
*391 FILLER_16_363
*392 FILLER_16_365
*393 FILLER_16_41
*394 FILLER_16_53
*395 FILLER_16_65
*396 FILLER_16_77
*397 FILLER_16_83
*398 FILLER_16_85
*399 FILLER_16_97
*400 FILLER_17_105
*401 FILLER_17_111
*402 FILLER_17_113
*403 FILLER_17_125
*404 FILLER_17_137
*405 FILLER_17_149
*406 FILLER_17_15
*407 FILLER_17_161
*408 FILLER_17_167
*409 FILLER_17_169
*410 FILLER_17_181
*411 FILLER_17_193
*412 FILLER_17_205
*413 FILLER_17_217
*414 FILLER_17_223
*415 FILLER_17_225
*416 FILLER_17_237
*417 FILLER_17_249
*418 FILLER_17_261
*419 FILLER_17_27
*420 FILLER_17_273
*421 FILLER_17_279
*422 FILLER_17_281
*423 FILLER_17_293
*424 FILLER_17_3
*425 FILLER_17_305
*426 FILLER_17_317
*427 FILLER_17_329
*428 FILLER_17_335
*429 FILLER_17_337
*430 FILLER_17_349
*431 FILLER_17_361
*432 FILLER_17_367
*433 FILLER_17_39
*434 FILLER_17_51
*435 FILLER_17_55
*436 FILLER_17_57
*437 FILLER_17_69
*438 FILLER_17_81
*439 FILLER_17_93
*440 FILLER_18_109
*441 FILLER_18_121
*442 FILLER_18_133
*443 FILLER_18_139
*444 FILLER_18_141
*445 FILLER_18_15
*446 FILLER_18_153
*447 FILLER_18_165
*448 FILLER_18_177
*449 FILLER_18_189
*450 FILLER_18_195
*451 FILLER_18_197
*452 FILLER_18_209
*453 FILLER_18_221
*454 FILLER_18_233
*455 FILLER_18_245
*456 FILLER_18_251
*457 FILLER_18_253
*458 FILLER_18_265
*459 FILLER_18_27
*460 FILLER_18_277
*461 FILLER_18_289
*462 FILLER_18_29
*463 FILLER_18_3
*464 FILLER_18_301
*465 FILLER_18_307
*466 FILLER_18_309
*467 FILLER_18_321
*468 FILLER_18_333
*469 FILLER_18_345
*470 FILLER_18_357
*471 FILLER_18_363
*472 FILLER_18_365
*473 FILLER_18_41
*474 FILLER_18_53
*475 FILLER_18_65
*476 FILLER_18_77
*477 FILLER_18_83
*478 FILLER_18_85
*479 FILLER_18_97
*480 FILLER_19_105
*481 FILLER_19_111
*482 FILLER_19_113
*483 FILLER_19_125
*484 FILLER_19_137
*485 FILLER_19_149
*486 FILLER_19_15
*487 FILLER_19_161
*488 FILLER_19_167
*489 FILLER_19_169
*490 FILLER_19_181
*491 FILLER_19_193
*492 FILLER_19_205
*493 FILLER_19_217
*494 FILLER_19_223
*495 FILLER_19_225
*496 FILLER_19_237
*497 FILLER_19_249
*498 FILLER_19_261
*499 FILLER_19_27
*500 FILLER_19_273
*501 FILLER_19_279
*502 FILLER_19_281
*503 FILLER_19_293
*504 FILLER_19_3
*505 FILLER_19_305
*506 FILLER_19_317
*507 FILLER_19_329
*508 FILLER_19_335
*509 FILLER_19_337
*510 FILLER_19_349
*511 FILLER_19_361
*512 FILLER_19_367
*513 FILLER_19_39
*514 FILLER_19_51
*515 FILLER_19_55
*516 FILLER_19_57
*517 FILLER_19_69
*518 FILLER_19_81
*519 FILLER_19_93
*520 FILLER_1_105
*521 FILLER_1_111
*522 FILLER_1_113
*523 FILLER_1_125
*524 FILLER_1_137
*525 FILLER_1_149
*526 FILLER_1_15
*527 FILLER_1_161
*528 FILLER_1_167
*529 FILLER_1_169
*530 FILLER_1_181
*531 FILLER_1_193
*532 FILLER_1_205
*533 FILLER_1_217
*534 FILLER_1_223
*535 FILLER_1_225
*536 FILLER_1_237
*537 FILLER_1_249
*538 FILLER_1_261
*539 FILLER_1_27
*540 FILLER_1_273
*541 FILLER_1_279
*542 FILLER_1_281
*543 FILLER_1_293
*544 FILLER_1_3
*545 FILLER_1_305
*546 FILLER_1_317
*547 FILLER_1_329
*548 FILLER_1_335
*549 FILLER_1_337
*550 FILLER_1_349
*551 FILLER_1_361
*552 FILLER_1_366
*553 FILLER_1_39
*554 FILLER_1_51
*555 FILLER_1_55
*556 FILLER_1_57
*557 FILLER_1_69
*558 FILLER_1_81
*559 FILLER_1_93
*560 FILLER_20_109
*561 FILLER_20_121
*562 FILLER_20_133
*563 FILLER_20_139
*564 FILLER_20_141
*565 FILLER_20_15
*566 FILLER_20_153
*567 FILLER_20_165
*568 FILLER_20_177
*569 FILLER_20_189
*570 FILLER_20_195
*571 FILLER_20_197
*572 FILLER_20_209
*573 FILLER_20_221
*574 FILLER_20_233
*575 FILLER_20_245
*576 FILLER_20_251
*577 FILLER_20_253
*578 FILLER_20_265
*579 FILLER_20_27
*580 FILLER_20_277
*581 FILLER_20_289
*582 FILLER_20_29
*583 FILLER_20_3
*584 FILLER_20_301
*585 FILLER_20_307
*586 FILLER_20_309
*587 FILLER_20_321
*588 FILLER_20_333
*589 FILLER_20_345
*590 FILLER_20_357
*591 FILLER_20_363
*592 FILLER_20_365
*593 FILLER_20_41
*594 FILLER_20_53
*595 FILLER_20_65
*596 FILLER_20_77
*597 FILLER_20_83
*598 FILLER_20_85
*599 FILLER_20_97
*600 FILLER_21_105
*601 FILLER_21_111
*602 FILLER_21_113
*603 FILLER_21_125
*604 FILLER_21_137
*605 FILLER_21_149
*606 FILLER_21_15
*607 FILLER_21_161
*608 FILLER_21_167
*609 FILLER_21_169
*610 FILLER_21_181
*611 FILLER_21_193
*612 FILLER_21_205
*613 FILLER_21_217
*614 FILLER_21_223
*615 FILLER_21_225
*616 FILLER_21_237
*617 FILLER_21_249
*618 FILLER_21_261
*619 FILLER_21_27
*620 FILLER_21_273
*621 FILLER_21_279
*622 FILLER_21_281
*623 FILLER_21_293
*624 FILLER_21_3
*625 FILLER_21_305
*626 FILLER_21_317
*627 FILLER_21_329
*628 FILLER_21_335
*629 FILLER_21_337
*630 FILLER_21_349
*631 FILLER_21_361
*632 FILLER_21_367
*633 FILLER_21_39
*634 FILLER_21_51
*635 FILLER_21_55
*636 FILLER_21_57
*637 FILLER_21_69
*638 FILLER_21_81
*639 FILLER_21_93
*640 FILLER_22_109
*641 FILLER_22_121
*642 FILLER_22_133
*643 FILLER_22_139
*644 FILLER_22_141
*645 FILLER_22_15
*646 FILLER_22_153
*647 FILLER_22_165
*648 FILLER_22_177
*649 FILLER_22_189
*650 FILLER_22_195
*651 FILLER_22_197
*652 FILLER_22_209
*653 FILLER_22_221
*654 FILLER_22_233
*655 FILLER_22_245
*656 FILLER_22_251
*657 FILLER_22_253
*658 FILLER_22_265
*659 FILLER_22_27
*660 FILLER_22_277
*661 FILLER_22_289
*662 FILLER_22_29
*663 FILLER_22_3
*664 FILLER_22_301
*665 FILLER_22_307
*666 FILLER_22_309
*667 FILLER_22_321
*668 FILLER_22_333
*669 FILLER_22_345
*670 FILLER_22_357
*671 FILLER_22_363
*672 FILLER_22_365
*673 FILLER_22_41
*674 FILLER_22_53
*675 FILLER_22_65
*676 FILLER_22_77
*677 FILLER_22_83
*678 FILLER_22_85
*679 FILLER_22_97
*680 FILLER_23_105
*681 FILLER_23_111
*682 FILLER_23_113
*683 FILLER_23_125
*684 FILLER_23_137
*685 FILLER_23_149
*686 FILLER_23_15
*687 FILLER_23_161
*688 FILLER_23_167
*689 FILLER_23_169
*690 FILLER_23_181
*691 FILLER_23_193
*692 FILLER_23_205
*693 FILLER_23_217
*694 FILLER_23_223
*695 FILLER_23_225
*696 FILLER_23_237
*697 FILLER_23_249
*698 FILLER_23_261
*699 FILLER_23_27
*700 FILLER_23_273
*701 FILLER_23_279
*702 FILLER_23_281
*703 FILLER_23_293
*704 FILLER_23_3
*705 FILLER_23_305
*706 FILLER_23_317
*707 FILLER_23_329
*708 FILLER_23_335
*709 FILLER_23_337
*710 FILLER_23_349
*711 FILLER_23_361
*712 FILLER_23_367
*713 FILLER_23_39
*714 FILLER_23_51
*715 FILLER_23_55
*716 FILLER_23_57
*717 FILLER_23_69
*718 FILLER_23_81
*719 FILLER_23_93
*720 FILLER_24_109
*721 FILLER_24_121
*722 FILLER_24_133
*723 FILLER_24_139
*724 FILLER_24_141
*725 FILLER_24_15
*726 FILLER_24_153
*727 FILLER_24_165
*728 FILLER_24_177
*729 FILLER_24_189
*730 FILLER_24_195
*731 FILLER_24_197
*732 FILLER_24_209
*733 FILLER_24_221
*734 FILLER_24_233
*735 FILLER_24_245
*736 FILLER_24_251
*737 FILLER_24_253
*738 FILLER_24_265
*739 FILLER_24_27
*740 FILLER_24_277
*741 FILLER_24_289
*742 FILLER_24_29
*743 FILLER_24_3
*744 FILLER_24_301
*745 FILLER_24_307
*746 FILLER_24_309
*747 FILLER_24_321
*748 FILLER_24_333
*749 FILLER_24_345
*750 FILLER_24_357
*751 FILLER_24_363
*752 FILLER_24_365
*753 FILLER_24_41
*754 FILLER_24_53
*755 FILLER_24_65
*756 FILLER_24_77
*757 FILLER_24_83
*758 FILLER_24_85
*759 FILLER_24_97
*760 FILLER_25_105
*761 FILLER_25_111
*762 FILLER_25_113
*763 FILLER_25_125
*764 FILLER_25_137
*765 FILLER_25_149
*766 FILLER_25_15
*767 FILLER_25_161
*768 FILLER_25_167
*769 FILLER_25_169
*770 FILLER_25_181
*771 FILLER_25_193
*772 FILLER_25_205
*773 FILLER_25_217
*774 FILLER_25_223
*775 FILLER_25_225
*776 FILLER_25_237
*777 FILLER_25_249
*778 FILLER_25_261
*779 FILLER_25_27
*780 FILLER_25_273
*781 FILLER_25_279
*782 FILLER_25_281
*783 FILLER_25_293
*784 FILLER_25_3
*785 FILLER_25_305
*786 FILLER_25_317
*787 FILLER_25_329
*788 FILLER_25_335
*789 FILLER_25_337
*790 FILLER_25_349
*791 FILLER_25_361
*792 FILLER_25_367
*793 FILLER_25_39
*794 FILLER_25_51
*795 FILLER_25_55
*796 FILLER_25_57
*797 FILLER_25_69
*798 FILLER_25_81
*799 FILLER_25_93
*800 FILLER_26_109
*801 FILLER_26_121
*802 FILLER_26_133
*803 FILLER_26_139
*804 FILLER_26_141
*805 FILLER_26_15
*806 FILLER_26_153
*807 FILLER_26_165
*808 FILLER_26_177
*809 FILLER_26_189
*810 FILLER_26_195
*811 FILLER_26_197
*812 FILLER_26_209
*813 FILLER_26_221
*814 FILLER_26_233
*815 FILLER_26_245
*816 FILLER_26_251
*817 FILLER_26_253
*818 FILLER_26_265
*819 FILLER_26_27
*820 FILLER_26_277
*821 FILLER_26_289
*822 FILLER_26_29
*823 FILLER_26_3
*824 FILLER_26_301
*825 FILLER_26_307
*826 FILLER_26_309
*827 FILLER_26_321
*828 FILLER_26_333
*829 FILLER_26_345
*830 FILLER_26_357
*831 FILLER_26_363
*832 FILLER_26_365
*833 FILLER_26_41
*834 FILLER_26_53
*835 FILLER_26_65
*836 FILLER_26_77
*837 FILLER_26_83
*838 FILLER_26_85
*839 FILLER_26_97
*840 FILLER_27_105
*841 FILLER_27_111
*842 FILLER_27_113
*843 FILLER_27_125
*844 FILLER_27_137
*845 FILLER_27_149
*846 FILLER_27_15
*847 FILLER_27_161
*848 FILLER_27_167
*849 FILLER_27_169
*850 FILLER_27_181
*851 FILLER_27_193
*852 FILLER_27_205
*853 FILLER_27_217
*854 FILLER_27_223
*855 FILLER_27_225
*856 FILLER_27_237
*857 FILLER_27_249
*858 FILLER_27_261
*859 FILLER_27_27
*860 FILLER_27_273
*861 FILLER_27_279
*862 FILLER_27_281
*863 FILLER_27_293
*864 FILLER_27_3
*865 FILLER_27_305
*866 FILLER_27_317
*867 FILLER_27_329
*868 FILLER_27_335
*869 FILLER_27_337
*870 FILLER_27_349
*871 FILLER_27_361
*872 FILLER_27_367
*873 FILLER_27_39
*874 FILLER_27_51
*875 FILLER_27_55
*876 FILLER_27_57
*877 FILLER_27_69
*878 FILLER_27_81
*879 FILLER_27_93
*880 FILLER_28_109
*881 FILLER_28_121
*882 FILLER_28_133
*883 FILLER_28_139
*884 FILLER_28_141
*885 FILLER_28_15
*886 FILLER_28_153
*887 FILLER_28_165
*888 FILLER_28_177
*889 FILLER_28_189
*890 FILLER_28_195
*891 FILLER_28_197
*892 FILLER_28_209
*893 FILLER_28_221
*894 FILLER_28_233
*895 FILLER_28_245
*896 FILLER_28_251
*897 FILLER_28_253
*898 FILLER_28_265
*899 FILLER_28_27
*900 FILLER_28_277
*901 FILLER_28_289
*902 FILLER_28_29
*903 FILLER_28_3
*904 FILLER_28_301
*905 FILLER_28_307
*906 FILLER_28_309
*907 FILLER_28_321
*908 FILLER_28_333
*909 FILLER_28_345
*910 FILLER_28_357
*911 FILLER_28_363
*912 FILLER_28_365
*913 FILLER_28_41
*914 FILLER_28_53
*915 FILLER_28_65
*916 FILLER_28_77
*917 FILLER_28_83
*918 FILLER_28_85
*919 FILLER_28_97
*920 FILLER_29_105
*921 FILLER_29_111
*922 FILLER_29_113
*923 FILLER_29_125
*924 FILLER_29_137
*925 FILLER_29_149
*926 FILLER_29_15
*927 FILLER_29_161
*928 FILLER_29_167
*929 FILLER_29_169
*930 FILLER_29_181
*931 FILLER_29_193
*932 FILLER_29_205
*933 FILLER_29_217
*934 FILLER_29_223
*935 FILLER_29_225
*936 FILLER_29_237
*937 FILLER_29_249
*938 FILLER_29_261
*939 FILLER_29_27
*940 FILLER_29_273
*941 FILLER_29_279
*942 FILLER_29_281
*943 FILLER_29_293
*944 FILLER_29_3
*945 FILLER_29_305
*946 FILLER_29_317
*947 FILLER_29_329
*948 FILLER_29_335
*949 FILLER_29_337
*950 FILLER_29_349
*951 FILLER_29_361
*952 FILLER_29_367
*953 FILLER_29_39
*954 FILLER_29_51
*955 FILLER_29_55
*956 FILLER_29_57
*957 FILLER_29_69
*958 FILLER_29_81
*959 FILLER_29_93
*960 FILLER_2_109
*961 FILLER_2_121
*962 FILLER_2_133
*963 FILLER_2_139
*964 FILLER_2_141
*965 FILLER_2_15
*966 FILLER_2_153
*967 FILLER_2_165
*968 FILLER_2_177
*969 FILLER_2_189
*970 FILLER_2_195
*971 FILLER_2_197
*972 FILLER_2_209
*973 FILLER_2_221
*974 FILLER_2_233
*975 FILLER_2_245
*976 FILLER_2_251
*977 FILLER_2_253
*978 FILLER_2_265
*979 FILLER_2_27
*980 FILLER_2_277
*981 FILLER_2_289
*982 FILLER_2_29
*983 FILLER_2_3
*984 FILLER_2_301
*985 FILLER_2_307
*986 FILLER_2_309
*987 FILLER_2_321
*988 FILLER_2_333
*989 FILLER_2_345
*990 FILLER_2_357
*991 FILLER_2_362
*992 FILLER_2_365
*993 FILLER_2_41
*994 FILLER_2_53
*995 FILLER_2_65
*996 FILLER_2_77
*997 FILLER_2_83
*998 FILLER_2_85
*999 FILLER_2_97
*1000 FILLER_30_109
*1001 FILLER_30_121
*1002 FILLER_30_133
*1003 FILLER_30_139
*1004 FILLER_30_141
*1005 FILLER_30_15
*1006 FILLER_30_153
*1007 FILLER_30_165
*1008 FILLER_30_177
*1009 FILLER_30_189
*1010 FILLER_30_195
*1011 FILLER_30_197
*1012 FILLER_30_209
*1013 FILLER_30_221
*1014 FILLER_30_233
*1015 FILLER_30_245
*1016 FILLER_30_251
*1017 FILLER_30_253
*1018 FILLER_30_265
*1019 FILLER_30_27
*1020 FILLER_30_277
*1021 FILLER_30_289
*1022 FILLER_30_29
*1023 FILLER_30_3
*1024 FILLER_30_301
*1025 FILLER_30_307
*1026 FILLER_30_309
*1027 FILLER_30_321
*1028 FILLER_30_333
*1029 FILLER_30_345
*1030 FILLER_30_357
*1031 FILLER_30_362
*1032 FILLER_30_365
*1033 FILLER_30_41
*1034 FILLER_30_53
*1035 FILLER_30_65
*1036 FILLER_30_77
*1037 FILLER_30_83
*1038 FILLER_30_85
*1039 FILLER_30_97
*1040 FILLER_31_105
*1041 FILLER_31_111
*1042 FILLER_31_113
*1043 FILLER_31_125
*1044 FILLER_31_137
*1045 FILLER_31_149
*1046 FILLER_31_15
*1047 FILLER_31_161
*1048 FILLER_31_167
*1049 FILLER_31_169
*1050 FILLER_31_181
*1051 FILLER_31_193
*1052 FILLER_31_205
*1053 FILLER_31_217
*1054 FILLER_31_223
*1055 FILLER_31_225
*1056 FILLER_31_237
*1057 FILLER_31_249
*1058 FILLER_31_261
*1059 FILLER_31_27
*1060 FILLER_31_273
*1061 FILLER_31_279
*1062 FILLER_31_281
*1063 FILLER_31_293
*1064 FILLER_31_3
*1065 FILLER_31_305
*1066 FILLER_31_317
*1067 FILLER_31_329
*1068 FILLER_31_335
*1069 FILLER_31_337
*1070 FILLER_31_349
*1071 FILLER_31_361
*1072 FILLER_31_367
*1073 FILLER_31_39
*1074 FILLER_31_51
*1075 FILLER_31_55
*1076 FILLER_31_57
*1077 FILLER_31_69
*1078 FILLER_31_81
*1079 FILLER_31_93
*1080 FILLER_32_109
*1081 FILLER_32_121
*1082 FILLER_32_133
*1083 FILLER_32_139
*1084 FILLER_32_141
*1085 FILLER_32_15
*1086 FILLER_32_153
*1087 FILLER_32_165
*1088 FILLER_32_177
*1089 FILLER_32_189
*1090 FILLER_32_195
*1091 FILLER_32_197
*1092 FILLER_32_209
*1093 FILLER_32_221
*1094 FILLER_32_233
*1095 FILLER_32_245
*1096 FILLER_32_251
*1097 FILLER_32_253
*1098 FILLER_32_265
*1099 FILLER_32_27
*1100 FILLER_32_277
*1101 FILLER_32_289
*1102 FILLER_32_29
*1103 FILLER_32_3
*1104 FILLER_32_301
*1105 FILLER_32_307
*1106 FILLER_32_309
*1107 FILLER_32_321
*1108 FILLER_32_333
*1109 FILLER_32_345
*1110 FILLER_32_357
*1111 FILLER_32_362
*1112 FILLER_32_365
*1113 FILLER_32_41
*1114 FILLER_32_53
*1115 FILLER_32_65
*1116 FILLER_32_77
*1117 FILLER_32_83
*1118 FILLER_32_85
*1119 FILLER_32_97
*1120 FILLER_33_105
*1121 FILLER_33_111
*1122 FILLER_33_113
*1123 FILLER_33_125
*1124 FILLER_33_137
*1125 FILLER_33_149
*1126 FILLER_33_15
*1127 FILLER_33_161
*1128 FILLER_33_167
*1129 FILLER_33_169
*1130 FILLER_33_181
*1131 FILLER_33_193
*1132 FILLER_33_205
*1133 FILLER_33_217
*1134 FILLER_33_223
*1135 FILLER_33_225
*1136 FILLER_33_237
*1137 FILLER_33_249
*1138 FILLER_33_261
*1139 FILLER_33_27
*1140 FILLER_33_273
*1141 FILLER_33_279
*1142 FILLER_33_281
*1143 FILLER_33_293
*1144 FILLER_33_3
*1145 FILLER_33_305
*1146 FILLER_33_317
*1147 FILLER_33_329
*1148 FILLER_33_335
*1149 FILLER_33_337
*1150 FILLER_33_349
*1151 FILLER_33_361
*1152 FILLER_33_367
*1153 FILLER_33_39
*1154 FILLER_33_51
*1155 FILLER_33_55
*1156 FILLER_33_57
*1157 FILLER_33_69
*1158 FILLER_33_81
*1159 FILLER_33_93
*1160 FILLER_34_109
*1161 FILLER_34_121
*1162 FILLER_34_133
*1163 FILLER_34_139
*1164 FILLER_34_141
*1165 FILLER_34_15
*1166 FILLER_34_153
*1167 FILLER_34_165
*1168 FILLER_34_177
*1169 FILLER_34_189
*1170 FILLER_34_195
*1171 FILLER_34_197
*1172 FILLER_34_209
*1173 FILLER_34_221
*1174 FILLER_34_233
*1175 FILLER_34_245
*1176 FILLER_34_251
*1177 FILLER_34_253
*1178 FILLER_34_265
*1179 FILLER_34_27
*1180 FILLER_34_277
*1181 FILLER_34_289
*1182 FILLER_34_29
*1183 FILLER_34_3
*1184 FILLER_34_301
*1185 FILLER_34_307
*1186 FILLER_34_309
*1187 FILLER_34_321
*1188 FILLER_34_333
*1189 FILLER_34_345
*1190 FILLER_34_357
*1191 FILLER_34_363
*1192 FILLER_34_365
*1193 FILLER_34_41
*1194 FILLER_34_53
*1195 FILLER_34_65
*1196 FILLER_34_77
*1197 FILLER_34_83
*1198 FILLER_34_85
*1199 FILLER_34_97
*1200 FILLER_35_105
*1201 FILLER_35_111
*1202 FILLER_35_113
*1203 FILLER_35_125
*1204 FILLER_35_137
*1205 FILLER_35_149
*1206 FILLER_35_15
*1207 FILLER_35_161
*1208 FILLER_35_167
*1209 FILLER_35_169
*1210 FILLER_35_181
*1211 FILLER_35_193
*1212 FILLER_35_205
*1213 FILLER_35_217
*1214 FILLER_35_223
*1215 FILLER_35_225
*1216 FILLER_35_237
*1217 FILLER_35_249
*1218 FILLER_35_261
*1219 FILLER_35_27
*1220 FILLER_35_273
*1221 FILLER_35_279
*1222 FILLER_35_281
*1223 FILLER_35_293
*1224 FILLER_35_3
*1225 FILLER_35_305
*1226 FILLER_35_317
*1227 FILLER_35_329
*1228 FILLER_35_335
*1229 FILLER_35_337
*1230 FILLER_35_349
*1231 FILLER_35_361
*1232 FILLER_35_367
*1233 FILLER_35_39
*1234 FILLER_35_51
*1235 FILLER_35_55
*1236 FILLER_35_57
*1237 FILLER_35_69
*1238 FILLER_35_81
*1239 FILLER_35_93
*1240 FILLER_36_109
*1241 FILLER_36_121
*1242 FILLER_36_133
*1243 FILLER_36_139
*1244 FILLER_36_141
*1245 FILLER_36_15
*1246 FILLER_36_153
*1247 FILLER_36_165
*1248 FILLER_36_177
*1249 FILLER_36_189
*1250 FILLER_36_195
*1251 FILLER_36_197
*1252 FILLER_36_209
*1253 FILLER_36_221
*1254 FILLER_36_233
*1255 FILLER_36_245
*1256 FILLER_36_251
*1257 FILLER_36_253
*1258 FILLER_36_265
*1259 FILLER_36_27
*1260 FILLER_36_277
*1261 FILLER_36_289
*1262 FILLER_36_29
*1263 FILLER_36_3
*1264 FILLER_36_301
*1265 FILLER_36_307
*1266 FILLER_36_309
*1267 FILLER_36_321
*1268 FILLER_36_333
*1269 FILLER_36_345
*1270 FILLER_36_357
*1271 FILLER_36_363
*1272 FILLER_36_365
*1273 FILLER_36_41
*1274 FILLER_36_53
*1275 FILLER_36_65
*1276 FILLER_36_77
*1277 FILLER_36_83
*1278 FILLER_36_85
*1279 FILLER_36_97
*1280 FILLER_37_105
*1281 FILLER_37_111
*1282 FILLER_37_113
*1283 FILLER_37_125
*1284 FILLER_37_137
*1285 FILLER_37_149
*1286 FILLER_37_15
*1287 FILLER_37_161
*1288 FILLER_37_167
*1289 FILLER_37_169
*1290 FILLER_37_181
*1291 FILLER_37_193
*1292 FILLER_37_205
*1293 FILLER_37_217
*1294 FILLER_37_223
*1295 FILLER_37_225
*1296 FILLER_37_237
*1297 FILLER_37_249
*1298 FILLER_37_261
*1299 FILLER_37_27
*1300 FILLER_37_273
*1301 FILLER_37_279
*1302 FILLER_37_281
*1303 FILLER_37_293
*1304 FILLER_37_3
*1305 FILLER_37_305
*1306 FILLER_37_317
*1307 FILLER_37_329
*1308 FILLER_37_335
*1309 FILLER_37_337
*1310 FILLER_37_349
*1311 FILLER_37_361
*1312 FILLER_37_367
*1313 FILLER_37_39
*1314 FILLER_37_51
*1315 FILLER_37_55
*1316 FILLER_37_57
*1317 FILLER_37_69
*1318 FILLER_37_81
*1319 FILLER_37_93
*1320 FILLER_38_109
*1321 FILLER_38_121
*1322 FILLER_38_133
*1323 FILLER_38_139
*1324 FILLER_38_141
*1325 FILLER_38_15
*1326 FILLER_38_153
*1327 FILLER_38_165
*1328 FILLER_38_177
*1329 FILLER_38_189
*1330 FILLER_38_195
*1331 FILLER_38_197
*1332 FILLER_38_209
*1333 FILLER_38_221
*1334 FILLER_38_233
*1335 FILLER_38_245
*1336 FILLER_38_251
*1337 FILLER_38_253
*1338 FILLER_38_265
*1339 FILLER_38_27
*1340 FILLER_38_277
*1341 FILLER_38_289
*1342 FILLER_38_29
*1343 FILLER_38_3
*1344 FILLER_38_301
*1345 FILLER_38_307
*1346 FILLER_38_309
*1347 FILLER_38_321
*1348 FILLER_38_333
*1349 FILLER_38_345
*1350 FILLER_38_357
*1351 FILLER_38_363
*1352 FILLER_38_365
*1353 FILLER_38_41
*1354 FILLER_38_53
*1355 FILLER_38_65
*1356 FILLER_38_77
*1357 FILLER_38_83
*1358 FILLER_38_85
*1359 FILLER_38_97
*1360 FILLER_39_105
*1361 FILLER_39_111
*1362 FILLER_39_113
*1363 FILLER_39_125
*1364 FILLER_39_137
*1365 FILLER_39_149
*1366 FILLER_39_15
*1367 FILLER_39_161
*1368 FILLER_39_167
*1369 FILLER_39_169
*1370 FILLER_39_181
*1371 FILLER_39_193
*1372 FILLER_39_205
*1373 FILLER_39_217
*1374 FILLER_39_223
*1375 FILLER_39_225
*1376 FILLER_39_237
*1377 FILLER_39_249
*1378 FILLER_39_261
*1379 FILLER_39_27
*1380 FILLER_39_273
*1381 FILLER_39_279
*1382 FILLER_39_281
*1383 FILLER_39_293
*1384 FILLER_39_3
*1385 FILLER_39_305
*1386 FILLER_39_317
*1387 FILLER_39_329
*1388 FILLER_39_335
*1389 FILLER_39_337
*1390 FILLER_39_349
*1391 FILLER_39_361
*1392 FILLER_39_367
*1393 FILLER_39_39
*1394 FILLER_39_51
*1395 FILLER_39_55
*1396 FILLER_39_57
*1397 FILLER_39_69
*1398 FILLER_39_81
*1399 FILLER_39_93
*1400 FILLER_3_105
*1401 FILLER_3_111
*1402 FILLER_3_113
*1403 FILLER_3_125
*1404 FILLER_3_137
*1405 FILLER_3_149
*1406 FILLER_3_15
*1407 FILLER_3_161
*1408 FILLER_3_167
*1409 FILLER_3_169
*1410 FILLER_3_181
*1411 FILLER_3_193
*1412 FILLER_3_205
*1413 FILLER_3_217
*1414 FILLER_3_223
*1415 FILLER_3_225
*1416 FILLER_3_237
*1417 FILLER_3_249
*1418 FILLER_3_261
*1419 FILLER_3_27
*1420 FILLER_3_273
*1421 FILLER_3_279
*1422 FILLER_3_281
*1423 FILLER_3_293
*1424 FILLER_3_3
*1425 FILLER_3_305
*1426 FILLER_3_317
*1427 FILLER_3_329
*1428 FILLER_3_335
*1429 FILLER_3_337
*1430 FILLER_3_349
*1431 FILLER_3_361
*1432 FILLER_3_366
*1433 FILLER_3_39
*1434 FILLER_3_51
*1435 FILLER_3_55
*1436 FILLER_3_57
*1437 FILLER_3_69
*1438 FILLER_3_81
*1439 FILLER_3_93
*1440 FILLER_40_109
*1441 FILLER_40_121
*1442 FILLER_40_133
*1443 FILLER_40_139
*1444 FILLER_40_141
*1445 FILLER_40_15
*1446 FILLER_40_153
*1447 FILLER_40_165
*1448 FILLER_40_177
*1449 FILLER_40_189
*1450 FILLER_40_195
*1451 FILLER_40_197
*1452 FILLER_40_209
*1453 FILLER_40_221
*1454 FILLER_40_233
*1455 FILLER_40_245
*1456 FILLER_40_251
*1457 FILLER_40_253
*1458 FILLER_40_265
*1459 FILLER_40_27
*1460 FILLER_40_277
*1461 FILLER_40_289
*1462 FILLER_40_29
*1463 FILLER_40_3
*1464 FILLER_40_301
*1465 FILLER_40_307
*1466 FILLER_40_309
*1467 FILLER_40_321
*1468 FILLER_40_333
*1469 FILLER_40_345
*1470 FILLER_40_357
*1471 FILLER_40_363
*1472 FILLER_40_365
*1473 FILLER_40_41
*1474 FILLER_40_53
*1475 FILLER_40_65
*1476 FILLER_40_77
*1477 FILLER_40_83
*1478 FILLER_40_85
*1479 FILLER_40_97
*1480 FILLER_41_105
*1481 FILLER_41_111
*1482 FILLER_41_113
*1483 FILLER_41_125
*1484 FILLER_41_137
*1485 FILLER_41_149
*1486 FILLER_41_15
*1487 FILLER_41_161
*1488 FILLER_41_167
*1489 FILLER_41_169
*1490 FILLER_41_181
*1491 FILLER_41_193
*1492 FILLER_41_205
*1493 FILLER_41_217
*1494 FILLER_41_223
*1495 FILLER_41_225
*1496 FILLER_41_237
*1497 FILLER_41_249
*1498 FILLER_41_261
*1499 FILLER_41_27
*1500 FILLER_41_273
*1501 FILLER_41_279
*1502 FILLER_41_281
*1503 FILLER_41_293
*1504 FILLER_41_3
*1505 FILLER_41_305
*1506 FILLER_41_317
*1507 FILLER_41_329
*1508 FILLER_41_335
*1509 FILLER_41_337
*1510 FILLER_41_349
*1511 FILLER_41_361
*1512 FILLER_41_367
*1513 FILLER_41_39
*1514 FILLER_41_51
*1515 FILLER_41_55
*1516 FILLER_41_57
*1517 FILLER_41_69
*1518 FILLER_41_81
*1519 FILLER_41_93
*1520 FILLER_42_109
*1521 FILLER_42_121
*1522 FILLER_42_133
*1523 FILLER_42_139
*1524 FILLER_42_141
*1525 FILLER_42_15
*1526 FILLER_42_153
*1527 FILLER_42_165
*1528 FILLER_42_177
*1529 FILLER_42_189
*1530 FILLER_42_195
*1531 FILLER_42_197
*1532 FILLER_42_209
*1533 FILLER_42_221
*1534 FILLER_42_233
*1535 FILLER_42_245
*1536 FILLER_42_251
*1537 FILLER_42_253
*1538 FILLER_42_265
*1539 FILLER_42_27
*1540 FILLER_42_277
*1541 FILLER_42_289
*1542 FILLER_42_29
*1543 FILLER_42_3
*1544 FILLER_42_301
*1545 FILLER_42_307
*1546 FILLER_42_309
*1547 FILLER_42_321
*1548 FILLER_42_333
*1549 FILLER_42_345
*1550 FILLER_42_357
*1551 FILLER_42_363
*1552 FILLER_42_365
*1553 FILLER_42_41
*1554 FILLER_42_53
*1555 FILLER_42_65
*1556 FILLER_42_77
*1557 FILLER_42_83
*1558 FILLER_42_85
*1559 FILLER_42_97
*1560 FILLER_43_105
*1561 FILLER_43_111
*1562 FILLER_43_113
*1563 FILLER_43_125
*1564 FILLER_43_137
*1565 FILLER_43_149
*1566 FILLER_43_15
*1567 FILLER_43_161
*1568 FILLER_43_167
*1569 FILLER_43_169
*1570 FILLER_43_181
*1571 FILLER_43_193
*1572 FILLER_43_205
*1573 FILLER_43_217
*1574 FILLER_43_223
*1575 FILLER_43_225
*1576 FILLER_43_237
*1577 FILLER_43_249
*1578 FILLER_43_261
*1579 FILLER_43_27
*1580 FILLER_43_273
*1581 FILLER_43_279
*1582 FILLER_43_281
*1583 FILLER_43_293
*1584 FILLER_43_3
*1585 FILLER_43_305
*1586 FILLER_43_317
*1587 FILLER_43_329
*1588 FILLER_43_335
*1589 FILLER_43_337
*1590 FILLER_43_349
*1591 FILLER_43_361
*1592 FILLER_43_367
*1593 FILLER_43_39
*1594 FILLER_43_51
*1595 FILLER_43_55
*1596 FILLER_43_57
*1597 FILLER_43_69
*1598 FILLER_43_81
*1599 FILLER_43_93