*SPEF "ieee 1481-1999"
*DESIGN "egd_top_wrapper"
*DATE "11:11:11 Fri 11 11, 1111"
*VENDOR "OpenRCX"
*PROGRAM "Parallel Extraction"
*VERSION "1.0"
*DESIGN_FLOW "NAME_SCOPE LOCAL" "PIN_CAP NONE"
*DIVIDER /
*DELIMITER :
*BUS_DELIMITER []
*T_UNIT 1 NS
*C_UNIT 1 PF
*R_UNIT 1 OHM
*L_UNIT 1 HENRY

*NAME_MAP
*1 la_data_in_58_43[0]
*2 la_data_in_58_43[10]
*3 la_data_in_58_43[11]
*4 la_data_in_58_43[12]
*5 la_data_in_58_43[13]
*6 la_data_in_58_43[14]
*7 la_data_in_58_43[15]
*8 la_data_in_58_43[1]
*9 la_data_in_58_43[2]
*10 la_data_in_58_43[3]
*11 la_data_in_58_43[4]
*12 la_data_in_58_43[5]
*13 la_data_in_58_43[6]
*14 la_data_in_58_43[7]
*15 la_data_in_58_43[8]
*16 la_data_in_58_43[9]
*17 la_data_in_60_59[0]
*18 la_data_in_60_59[1]
*19 la_data_in_65
*20 la_data_out_23_16[0]
*21 la_data_out_23_16[1]
*22 la_data_out_23_16[2]
*23 la_data_out_23_16[3]
*24 la_data_out_23_16[4]
*25 la_data_out_23_16[5]
*26 la_data_out_23_16[6]
*27 la_data_out_23_16[7]
*28 la_data_out_26_24[0]
*29 la_data_out_26_24[1]
*30 la_data_out_26_24[2]
*31 la_data_out_30_27[0]
*32 la_data_out_30_27[1]
*33 la_data_out_30_27[2]
*34 la_data_out_30_27[3]
*37 wb_clk_i
*38 _0161_
*39 _0162_
*40 _0163_
*41 _0164_
*42 _0165_
*43 _0166_
*44 _0167_
*45 _0168_
*46 _0169_
*47 _0170_
*48 _0171_
*49 _0172_
*50 _0173_
*51 _0174_
*52 _0175_
*53 _0176_
*54 _0177_
*55 _0178_
*56 _0179_
*57 _0180_
*58 _0181_
*59 _0182_
*60 _0183_
*61 _0184_
*62 _0185_
*63 _0186_
*64 _0187_
*65 _0188_
*66 _0189_
*67 _0190_
*68 _0191_
*69 _0192_
*70 _0193_
*71 _0194_
*72 _0195_
*73 _0196_
*74 _0197_
*75 _0198_
*76 _0199_
*77 _0200_
*78 _0201_
*79 _0202_
*80 _0203_
*81 _0204_
*82 _0205_
*83 _0206_
*84 _0207_
*85 _0208_
*86 _0209_
*87 _0210_
*88 _0211_
*89 _0212_
*90 _0213_
*91 _0214_
*92 _0215_
*93 _0216_
*94 _0217_
*95 _0218_
*96 _0219_
*97 _0220_
*98 _0221_
*99 _0222_
*100 _0223_
*101 _0224_
*102 _0225_
*103 _0226_
*104 _0227_
*105 _0228_
*106 _0229_
*107 _0230_
*108 _0231_
*109 _0232_
*110 _0233_
*111 _0234_
*112 _0235_
*113 _0236_
*114 _0237_
*115 _0238_
*116 _0239_
*117 _0240_
*118 _0241_
*119 _0242_
*120 _0243_
*121 _0244_
*122 _0245_
*123 _0246_
*124 _0247_
*125 _0248_
*126 _0249_
*127 _0250_
*128 _0251_
*129 _0252_
*130 _0253_
*131 _0254_
*132 _0255_
*133 _0256_
*134 _0257_
*135 _0258_
*136 _0259_
*137 _0260_
*138 _0261_
*139 _0262_
*140 _0263_
*141 _0264_
*142 _0265_
*143 _0266_
*144 _0267_
*145 _0268_
*146 _0269_
*147 _0270_
*148 _0271_
*149 _0272_
*150 _0273_
*151 _0274_
*152 _0275_
*153 _0276_
*154 _0277_
*155 _0278_
*156 _0279_
*157 _0280_
*158 _0281_
*159 _0282_
*160 _0283_
*161 _0284_
*162 _0285_
*163 _0286_
*164 _0287_
*165 _0288_
*166 _0289_
*167 _0290_
*168 _0291_
*169 _0292_
*170 _0293_
*171 _0294_
*172 _0295_
*173 _0296_
*174 _0297_
*175 _0298_
*176 _0299_
*177 _0300_
*178 _0301_
*179 _0302_
*180 _0303_
*181 _0304_
*182 _0305_
*183 _0306_
*184 _0307_
*185 _0308_
*186 _0309_
*187 _0310_
*188 _0311_
*189 _0312_
*190 _0313_
*191 _0314_
*192 _0315_
*193 _0316_
*194 _0317_
*195 _0318_
*196 _0319_
*197 _0320_
*198 _0321_
*199 _0322_
*200 _0323_
*201 _0324_
*202 _0325_
*203 _0326_
*204 _0327_
*205 _0328_
*206 _0329_
*207 _0330_
*208 _0331_
*209 _0332_
*210 _0333_
*211 _0334_
*212 _0335_
*213 _0336_
*214 _0337_
*215 _0338_
*216 _0339_
*217 _0340_
*218 _0341_
*219 _0342_
*220 _0343_
*221 _0344_
*222 _0345_
*223 _0346_
*224 _0347_
*225 _0348_
*226 _0349_
*227 _0350_
*228 _0351_
*229 _0352_
*230 _0353_
*231 _0354_
*232 _0355_
*233 _0356_
*234 _0357_
*235 _0358_
*236 _0359_
*237 _0360_
*238 _0361_
*239 _0362_
*240 _0363_
*241 _0364_
*242 _0365_
*243 _0366_
*244 _0367_
*245 _0368_
*246 _0369_
*247 _0370_
*248 _0371_
*249 _0372_
*250 _0373_
*251 _0374_
*252 _0375_
*253 _0376_
*254 _0377_
*255 _0378_
*256 _0379_
*257 _0380_
*258 _0381_
*259 _0382_
*260 _0383_
*261 _0384_
*262 _0385_
*263 _0386_
*264 _0387_
*265 _0388_
*266 _0389_
*267 _0390_
*268 _0391_
*269 _0392_
*270 _0393_
*271 _0394_
*272 _0395_
*273 _0396_
*274 _0397_
*275 _0398_
*276 _0399_
*277 _0400_
*278 _0401_
*279 _0402_
*280 _0403_
*281 _0404_
*282 _0405_
*283 _0406_
*284 _0407_
*285 _0408_
*286 _0409_
*287 _0410_
*288 _0411_
*289 _0412_
*290 _0413_
*291 _0414_
*292 _0415_
*293 _0416_
*294 _0417_
*295 _0418_
*296 _0419_
*297 _0420_
*298 _0421_
*299 _0422_
*300 _0423_
*301 _0424_
*302 _0425_
*303 _0426_
*304 _0427_
*305 _0428_
*306 _0429_
*307 _0430_
*308 _0431_
*309 _0432_
*310 _0433_
*311 _0434_
*312 _0435_
*313 _0436_
*314 _0437_
*315 _0438_
*316 _0439_
*317 _0440_
*318 _0441_
*319 _0442_
*320 _0443_
*321 _0444_
*322 _0445_
*323 _0446_
*324 _0447_
*325 _0448_
*326 _0449_
*327 _0450_
*328 _0451_
*329 _0452_
*330 _0453_
*331 _0454_
*332 _0455_
*333 _0456_
*334 _0457_
*335 _0458_
*336 _0459_
*337 _0460_
*338 _0461_
*339 _0462_
*340 _0463_
*341 _0464_
*342 _0465_
*343 _0466_
*344 _0467_
*345 _0468_
*346 _0469_
*347 _0470_
*348 _0471_
*349 _0472_
*350 _0473_
*351 _0474_
*352 _0475_
*353 _0476_
*354 _0477_
*355 _0478_
*356 _0479_
*357 _0480_
*358 _0481_
*359 _0482_
*360 _0483_
*361 _0484_
*362 _0485_
*363 _0486_
*364 _0487_
*365 _0488_
*366 _0489_
*367 _0490_
*368 _0491_
*369 _0492_
*370 _0493_
*371 _0494_
*372 _0495_
*373 _0496_
*374 _0497_
*375 _0498_
*376 _0499_
*377 _0500_
*378 _0501_
*379 _0502_
*380 _0503_
*381 _0504_
*382 _0505_
*383 _0506_
*384 _0507_
*385 _0508_
*386 _0509_
*387 _0510_
*388 _0511_
*389 _0512_
*390 _0513_
*391 _0514_
*392 _0515_
*393 _0516_
*394 _0517_
*395 _0518_
*396 _0519_
*397 _0520_
*398 _0521_
*399 _0522_
*400 _0523_
*401 _0524_
*402 _0525_
*403 _0526_
*404 _0527_
*405 _0528_
*406 _0529_
*407 _0530_
*408 _0531_
*409 _0532_
*410 _0533_
*411 _0534_
*412 _0535_
*413 _0536_
*414 _0537_
*415 _0538_
*416 _0539_
*417 _0540_
*418 _0541_
*419 _0542_
*420 _0543_
*421 _0544_
*422 _0545_
*423 _0546_
*424 _0547_
*425 _0548_
*426 _0549_
*427 _0550_
*428 _0551_
*429 _0552_
*430 _0553_
*431 _0554_
*432 _0555_
*433 _0556_
*434 _0557_
*435 _0558_
*436 _0559_
*437 _0560_
*438 _0561_
*439 _0562_
*440 _0563_
*441 _0564_
*442 _0565_
*443 _0566_
*444 _0567_
*445 _0568_
*446 _0569_
*447 _0570_
*448 _0571_
*449 _0572_
*450 _0573_
*451 _0574_
*452 _0575_
*453 _0576_
*454 _0577_
*455 _0578_
*456 _0579_
*457 _0580_
*458 _0581_
*459 _0582_
*460 _0583_
*461 _0584_
*462 _0585_
*463 _0586_
*464 _0587_
*465 _0588_
*466 _0589_
*467 _0590_
*468 _0591_
*469 _0592_
*470 _0593_
*471 _0594_
*472 _0595_
*473 _0596_
*474 _0597_
*475 _0598_
*476 _0599_
*477 _0600_
*478 _0601_
*479 _0602_
*480 _0603_
*481 _0604_
*482 _0605_
*483 _0606_
*484 _0607_
*485 _0608_
*486 _0609_
*487 _0610_
*488 _0611_
*489 _0612_
*490 _0613_
*491 _0614_
*492 _0615_
*493 _0616_
*494 _0617_
*495 _0618_
*496 _0619_
*497 _0620_
*498 _0621_
*499 _0622_
*500 _0623_
*501 _0624_
*502 _0625_
*503 _0626_
*504 _0627_
*505 _0628_
*506 _0629_
*507 _0630_
*508 _0631_
*509 _0632_
*510 _0633_
*511 _0634_
*512 _0635_
*513 _0636_
*514 _0637_
*515 _0638_
*516 _0639_
*517 _0640_
*518 _0641_
*519 _0642_
*520 _0643_
*521 _0644_
*522 _0645_
*523 _0646_
*524 _0647_
*525 _0648_
*526 _0649_
*527 _0650_
*528 _0651_
*529 _0652_
*530 _0653_
*531 _0654_
*532 _0655_
*533 _0656_
*534 _0657_
*535 _0658_
*536 _0659_
*537 _0660_
*538 _0661_
*539 _0662_
*540 _0663_
*541 _0664_
*542 _0665_
*543 _0666_
*544 _0667_
*545 _0668_
*546 _0669_
*547 _0670_
*548 _0671_
*549 _0672_
*550 _0673_
*551 _0674_
*552 _0675_
*553 _0676_
*554 _0677_
*555 _0678_
*556 _0679_
*557 _0680_
*558 _0681_
*559 _0682_
*560 _0683_
*561 _0684_
*562 _0685_
*563 _0686_
*564 _0687_
*565 _0688_
*566 _0689_
*567 _0690_
*568 _0691_
*569 _0692_
*570 _0693_
*571 _0694_
*572 _0695_
*573 _0696_
*574 _0697_
*575 _0698_
*576 _0699_
*577 _0700_
*578 _0701_
*579 _0702_
*580 _0703_
*581 _0704_
*582 _0705_
*583 _0706_
*584 _0707_
*585 _0708_
*586 _0709_
*587 _0710_
*588 _0711_
*589 _0712_
*590 _0713_
*591 _0714_
*592 _0715_
*593 _0716_
*594 _0717_
*595 _0718_
*596 _0719_
*597 _0720_
*598 _0721_
*599 _0722_
*600 _0723_
*601 _0724_
*602 _0725_
*603 _0726_
*604 _0727_
*605 _0728_
*606 _0729_
*607 _0730_
*608 _0731_
*609 _0732_
*610 _0733_
*611 _0734_
*612 _0735_
*613 _0736_
*614 _0737_
*615 _0738_
*616 _0739_
*617 _0740_
*618 _0741_
*619 _0742_
*620 _0743_
*621 _0744_
*622 _0745_
*623 _0746_
*624 _0747_
*625 _0748_
*626 _0749_
*627 _0750_
*628 _0751_
*629 _0752_
*630 _0753_
*631 _0754_
*632 _0755_
*633 _0756_
*634 _0757_
*635 _0758_
*636 _0759_
*637 _0760_
*638 _0761_
*639 _0762_
*640 _0763_
*641 _0764_
*642 _0765_
*643 _0766_
*644 _0767_
*645 _0768_
*646 _0769_
*647 _0770_
*648 _0771_
*649 _0772_
*650 _0773_
*651 _0774_
*652 _0775_
*653 _0776_
*654 _0777_
*655 _0778_
*656 _0779_
*657 _0780_
*658 _0781_
*659 _0782_
*660 _0783_
*661 _0784_
*662 _0785_
*663 _0786_
*664 _0787_
*665 _0788_
*666 _0789_
*667 _0790_
*668 _0791_
*669 _0792_
*670 _0793_
*671 _0794_
*672 _0795_
*673 _0796_
*674 _0797_
*675 _0798_
*676 _0799_
*677 _0800_
*678 _0801_
*679 _0802_
*680 _0803_
*681 _0804_
*682 _0805_
*683 _0806_
*684 _0807_
*685 _0808_
*686 _0809_
*687 _0810_
*688 _0811_
*689 _0812_
*690 _0813_
*691 _0814_
*692 _0815_
*693 _0816_
*694 _0817_
*695 _0818_
*696 _0819_
*697 _0820_
*698 _0821_
*699 _0822_
*700 _0823_
*701 _0824_
*702 _0825_
*703 _0826_
*704 _0827_
*705 _0828_
*706 _0829_
*707 _0830_
*708 _0831_
*709 _0832_
*710 _0833_
*711 _0834_
*712 _0835_
*713 _0836_
*714 _0837_
*715 _0838_
*716 _0839_
*717 _0840_
*718 _0841_
*719 _0842_
*720 _0843_
*721 _0844_
*722 _0845_
*723 _0846_
*724 _0847_
*725 _0848_
*726 _0849_
*727 _0850_
*728 _0851_
*729 _0852_
*730 _0853_
*731 _0854_
*732 _0855_
*733 _0856_
*734 _0857_
*735 _0858_
*736 _0859_
*737 _0860_
*738 _0861_
*739 _0862_
*740 _0863_
*741 _0864_
*742 _0865_
*743 _0866_
*744 _0867_
*745 _0868_
*746 _0869_
*747 _0870_
*748 _0871_
*749 _0872_
*750 _0873_
*751 _0874_
*752 _0875_
*753 _0876_
*754 _0877_
*755 _0878_
*756 _0879_
*757 _0880_
*758 _0881_
*759 _0882_
*760 _0883_
*761 _0884_
*762 _0885_
*763 _0886_
*764 _0887_
*765 _0888_
*766 _0889_
*767 _0890_
*768 _0891_
*769 _0892_
*770 _0893_
*771 _0894_
*772 _0895_
*773 _0896_
*774 _0897_
*775 _0898_
*776 _0899_
*777 _0900_
*778 _0901_
*779 _0902_
*780 _0903_
*781 _0904_
*782 _0905_
*783 _0906_
*784 _0907_
*785 _0908_
*786 _0909_
*787 _0910_
*788 _0911_
*789 _0912_
*790 _0913_
*791 _0914_
*792 _0915_
*793 _0916_
*794 _0917_
*795 _0918_
*796 _0919_
*797 _0920_
*798 _0921_
*799 _0922_
*800 _0923_
*801 _0924_
*802 _0925_
*803 _0926_
*804 _0927_
*805 _0928_
*806 _0929_
*807 _0930_
*808 _0931_
*809 _0932_
*810 _0933_
*811 _0934_
*812 _0935_
*813 _0936_
*814 _0937_
*815 _0938_
*816 _0939_
*817 _0940_
*818 _0941_
*819 _0942_
*820 _0943_
*821 _0944_
*822 _0945_
*823 _0946_
*824 _0947_
*825 _0948_
*826 _0949_
*827 _0950_
*828 _0951_
*829 _0952_
*830 _0953_
*831 _0954_
*832 _0955_
*833 _0956_
*834 _0957_
*835 _0958_
*836 _0959_
*837 _0960_
*838 _0961_
*839 _0962_
*840 _0963_
*841 _0964_
*842 _0965_
*843 _0966_
*844 _0967_
*845 _0968_
*846 _0969_
*847 _0970_
*848 _0971_
*849 _0972_
*850 _0973_
*851 _0974_
*852 _0975_
*853 _0976_
*854 _0977_
*855 _0978_
*856 _0979_
*857 _0980_
*858 _0981_
*859 _0982_
*860 _0983_
*861 _0984_
*862 _0985_
*863 _0986_
*864 _0987_
*865 _0988_
*866 _0989_
*867 _0990_
*868 _0991_
*869 _0992_
*870 _0993_
*871 _0994_
*872 _0995_
*873 _0996_
*874 _0997_
*875 _0998_
*876 _0999_
*877 _1000_
*878 _1001_
*879 _1002_
*880 _1003_
*881 _1004_
*882 _1005_
*883 _1006_
*884 _1007_
*885 _1008_
*886 _1009_
*887 _1010_
*888 _1011_
*889 _1012_
*890 _1013_
*891 _1014_
*892 _1015_
*893 _1016_
*894 _1017_
*895 _1018_
*896 _1019_
*897 _1020_
*898 _1021_
*899 _1022_
*900 _1023_
*901 _1024_
*902 _1025_
*903 _1026_
*904 _1027_
*905 _1028_
*906 _1029_
*907 _1030_
*908 _1031_
*909 _1032_
*910 _1033_
*911 _1034_
*912 _1035_
*913 _1036_
*914 _1037_
*915 _1038_
*916 _1039_
*917 _1040_
*918 _1041_
*919 _1042_
*920 _1043_
*921 _1044_
*922 _1045_
*923 _1046_
*924 _1047_
*925 _1048_
*926 _1049_
*927 _1050_
*928 _1051_
*929 _1052_
*930 _1053_
*931 _1054_
*932 _1055_
*933 _1056_
*934 _1057_
*935 _1058_
*936 _1059_
*937 _1060_
*938 _1061_
*939 _1062_
*940 _1063_
*941 _1064_
*942 _1065_
*943 _1066_
*944 _1067_
*945 _1068_
*946 _1069_
*947 _1070_
*948 _1071_
*949 _1072_
*950 _1073_
*951 _1074_
*952 _1075_
*953 _1076_
*954 _1077_
*955 _1078_
*956 _1079_
*957 _1080_
*958 _1081_
*959 _1082_
*960 _1083_
*961 _1084_
*962 _1085_
*963 _1086_
*964 _1087_
*965 _1088_
*966 _1089_
*967 _1090_
*968 _1091_
*969 _1092_
*970 _1093_
*971 _1094_
*972 _1095_
*973 _1096_
*974 _1097_
*975 _1098_
*976 _1099_
*977 _1100_
*978 _1101_
*979 _1102_
*980 _1103_
*981 _1104_
*982 _1105_
*983 _1106_
*984 _1107_
*985 _1108_
*986 _1109_
*987 _1110_
*988 _1111_
*989 _1112_
*990 _1113_
*991 _1114_
*992 _1115_
*993 _1116_
*994 _1117_
*995 _1118_
*996 _1119_
*997 _1120_
*998 _1121_
*999 _1122_
*1000 _1123_
*1001 _1124_
*1002 _1125_
*1003 _1126_
*1004 _1127_
*1005 _1128_
*1006 _1129_
*1007 _1130_
*1008 _1131_
*1009 _1132_
*1010 _1133_
*1011 _1134_
*1012 _1135_
*1013 _1136_
*1014 _1137_
*1015 _1138_
*1016 _1139_
*1017 _1140_
*1018 _1141_
*1019 _1142_
*1020 _1143_
*1021 _1144_
*1022 _1145_
*1023 _1146_
*1024 _1147_
*1025 _1148_
*1026 _1149_
*1027 _1150_
*1028 _1151_
*1029 _1152_
*1030 _1153_
*1031 _1154_
*1032 _1155_
*1033 _1156_
*1034 _1157_
*1035 _1158_
*1036 _1159_
*1037 _1160_
*1038 _1161_
*1039 _1162_
*1040 _1163_
*1041 _1164_
*1042 _1165_
*1043 _1166_
*1044 _1167_
*1045 _1168_
*1046 _1169_
*1047 _1170_
*1048 _1171_
*1049 _1172_
*1050 _1173_
*1051 _1174_
*1052 _1175_
*1053 _1176_
*1054 _1177_
*1055 _1178_
*1056 _1179_
*1057 _1180_
*1058 _1181_
*1059 _1182_
*1060 _1183_
*1061 _1184_
*1062 _1185_
*1063 _1186_
*1064 _1187_
*1065 _1188_
*1066 _1189_
*1067 _1190_
*1068 _1191_
*1069 _1192_
*1070 _1193_
*1071 _1194_
*1072 _1195_
*1073 _1196_
*1074 _1197_
*1075 _1198_
*1076 _1199_
*1077 _1200_
*1078 _1201_
*1079 _1202_
*1080 _1203_
*1081 _1204_
*1082 _1205_
*1083 _1206_
*1084 _1207_
*1085 _1208_
*1086 _1209_
*1087 _1210_
*1088 _1211_
*1089 _1212_
*1090 _1213_
*1091 _1214_
*1092 _1215_
*1093 _1216_
*1094 _1217_
*1095 _1218_
*1096 _1219_
*1097 _1220_
*1098 _1221_
*1099 _1222_
*1100 _1223_
*1101 _1224_
*1102 _1225_
*1103 _1226_
*1104 _1227_
*1105 _1228_
*1106 _1229_
*1107 _1230_
*1108 _1231_
*1109 _1232_
*1110 _1233_
*1111 _1234_
*1112 _1235_
*1113 _1236_
*1114 _1237_
*1115 _1238_
*1116 _1239_
*1117 _1240_
*1118 _1241_
*1119 _1242_
*1120 _1243_
*1121 _1244_
*1122 _1245_
*1123 _1246_
*1124 _1247_
*1125 _1248_
*1126 _1249_
*1127 _1250_
*1128 _1251_
*1129 _1252_
*1130 _1253_
*1131 _1254_
*1132 _1255_
*1133 _1256_
*1134 _1257_
*1135 _1258_
*1136 _1259_
*1137 _1260_
*1138 _1261_
*1139 _1262_
*1140 _1263_
*1141 _1264_
*1142 _1265_
*1143 _1266_
*1144 _1267_
*1145 _1268_
*1146 _1269_
*1147 _1270_
*1148 _1271_
*1149 _1272_
*1150 _1273_
*1151 _1274_
*1152 _1275_
*1153 _1276_
*1154 _1277_
*1155 _1278_
*1156 _1279_
*1157 _1280_
*1158 _1281_
*1159 _1282_
*1160 _1283_
*1161 _1284_
*1162 _1285_
*1163 _1286_
*1164 _1287_
*1165 _1288_
*1166 _1289_
*1167 _1290_
*1168 _1291_
*1169 _1292_
*1170 _1293_
*1171 _1294_
*1172 _1295_
*1173 _1296_
*1174 _1297_
*1175 _1298_
*1176 _1299_
*1177 _1300_
*1178 _1301_
*1179 _1302_
*1180 _1303_
*1181 _1304_
*1182 _1305_
*1183 _1306_
*1184 _1307_
*1185 _1308_
*1186 _1309_
*1187 _1310_
*1188 _1311_
*1189 _1312_
*1190 _1313_
*1191 _1314_
*1192 _1315_
*1193 _1316_
*1194 _1317_
*1195 _1318_
*1196 _1319_
*1197 _1320_
*1198 _1321_
*1199 _1322_
*1200 _1323_
*1201 _1324_
*1202 _1325_
*1203 _1326_
*1204 _1327_
*1205 _1328_
*1206 _1329_
*1207 _1330_
*1208 _1331_
*1209 _1332_
*1210 _1333_
*1211 _1334_
*1212 _1335_
*1213 _1336_
*1214 _1337_
*1215 _1338_
*1216 _1339_
*1217 _1340_
*1218 _1341_
*1219 _1342_
*1220 _1343_
*1221 _1344_
*1222 _1345_
*1223 _1346_
*1224 _1347_
*1225 _1348_
*1226 _1349_
*1227 _1350_
*1228 _1351_
*1229 _1352_
*1230 _1353_
*1231 _1354_
*1232 _1355_
*1233 _1356_
*1234 _1357_
*1235 _1358_
*1236 _1359_
*1237 _1360_
*1238 _1361_
*1239 _1362_
*1240 _1363_
*1241 _1364_
*1242 _1365_
*1243 _1366_
*1244 _1367_
*1245 _1368_
*1246 _1369_
*1247 _1370_
*1248 _1371_
*1249 _1372_
*1250 _1373_
*1251 _1374_
*1252 _1375_
*1253 _1376_
*1254 _1377_
*1255 _1378_
*1256 _1379_
*1257 _1380_
*1258 _1381_
*1259 _1382_
*1260 _1383_
*1261 _1384_
*1262 _1385_
*1263 _1386_
*1264 _1387_
*1265 _1388_
*1266 _1389_
*1267 _1390_
*1268 _1391_
*1269 _1392_
*1270 _1393_
*1271 _1394_
*1272 _1395_
*1273 _1396_
*1274 _1397_
*1275 _1398_
*1276 _1399_
*1277 _1400_
*1278 _1401_
*1279 _1402_
*1280 _1403_
*1281 _1404_
*1282 _1405_
*1283 _1406_
*1284 _1407_
*1285 _1408_
*1286 _1409_
*1287 _1410_
*1288 _1411_
*1289 _1412_
*1290 _1413_
*1291 _1414_
*1292 _1415_
*1293 _1416_
*1294 _1417_
*1295 _1418_
*1296 _1419_
*1297 _1420_
*1298 _1421_
*1299 _1422_
*1300 _1423_
*1301 _1424_
*1302 _1425_
*1303 _1426_
*1304 _1427_
*1305 _1428_
*1306 _1429_
*1307 _1430_
*1308 _1431_
*1309 _1432_
*1310 _1433_
*1311 _1434_
*1312 _1435_
*1313 _1436_
*1314 _1437_
*1315 _1438_
*1316 _1439_
*1317 _1440_
*1318 _1441_
*1319 _1442_
*1320 _1443_
*1321 _1444_
*1322 _1445_
*1323 _1446_
*1324 _1447_
*1325 _1448_
*1326 _1449_
*1327 _1450_
*1328 _1451_
*1329 _1452_
*1330 _1453_
*1331 _1454_
*1332 _1455_
*1333 _1456_
*1334 _1457_
*1335 _1458_
*1336 _1459_
*1337 _1460_
*1338 _1461_
*1339 _1462_
*1340 _1463_
*1341 _1464_
*1342 _1465_
*1343 _1466_
*1344 _1467_
*1345 _1468_
*1346 _1469_
*1347 _1470_
*1348 _1471_
*1349 _1472_
*1350 _1473_
*1351 _1474_
*1352 _1475_
*1353 _1476_
*1354 _1477_
*1355 _1478_
*1356 _1479_
*1357 _1480_
*1358 _1481_
*1359 _1482_
*1360 _1483_
*1361 _1484_
*1362 _1485_
*1363 _1486_
*1364 _1487_
*1365 _1488_
*1366 _1489_
*1367 _1490_
*1368 _1491_
*1369 _1492_
*1370 _1493_
*1371 _1494_
*1372 _1495_
*1373 _1496_
*1374 _1497_
*1375 _1498_
*1376 _1499_
*1377 _1500_
*1378 _1501_
*1379 _1502_
*1380 _1503_
*1381 _1504_
*1382 _1505_
*1383 _1506_
*1384 _1507_
*1385 _1508_
*1386 _1509_
*1387 _1510_
*1388 _1511_
*1389 _1512_
*1390 _1513_
*1391 _1514_
*1392 _1515_
*1393 _1516_
*1394 _1517_
*1395 _1518_
*1396 _1519_
*1397 _1520_
*1398 _1521_
*1399 _1522_
*1400 _1523_
*1401 _1524_
*1402 _1525_
*1403 _1526_
*1404 _1527_
*1405 _1528_
*1406 _1529_
*1407 _1530_
*1408 _1531_
*1409 _1532_
*1410 _1533_
*1411 _1534_
*1412 _1535_
*1413 _1536_
*1414 _1537_
*1415 _1538_
*1416 _1539_
*1417 _1540_
*1418 _1541_
*1419 _1542_
*1420 _1543_
*1421 _1544_
*1422 _1545_
*1423 _1546_
*1424 _1547_
*1425 _1548_
*1426 _1549_
*1427 _1550_
*1428 _1551_
*1429 _1552_
*1430 _1553_
*1431 _1554_
*1432 _1555_
*1433 _1556_
*1434 _1557_
*1435 _1558_
*1436 _1559_
*1437 _1560_
*1438 _1561_
*1439 _1562_
*1440 _1563_
*1441 _1564_
*1442 _1565_
*1443 _1566_
*1444 _1567_
*1445 _1568_
*1446 _1569_
*1447 _1570_
*1448 _1571_
*1449 _1572_
*1450 _1573_
*1451 _1574_
*1452 _1575_
*1453 _1576_
*1454 _1577_
*1455 _1578_
*1456 _1579_
*1457 _1580_
*1458 _1581_
*1459 _1582_
*1460 _1583_
*1461 _1584_
*1462 _1585_
*1463 _1586_
*1464 _1587_
*1465 _1588_
*1466 _1589_
*1467 _1590_
*1468 _1591_
*1469 _1592_
*1470 _1593_
*1471 _1594_
*1472 _1595_
*1473 _1596_
*1474 _1597_
*1475 _1598_
*1476 _1599_
*1477 _1600_
*1478 _1601_
*1479 _1602_
*1480 _1603_
*1481 _1604_
*1482 _1605_
*1483 _1606_
*1484 _1607_
*1485 _1608_
*1486 _1609_
*1487 _1610_
*1488 _1611_
*1489 _1612_
*1490 _1613_
*1491 _1614_
*1492 _1615_
*1493 _1616_
*1494 _1617_
*1495 _1618_
*1496 _1619_
*1497 _1620_
*1498 _1621_
*1499 _1622_
*1500 _1623_
*1501 _1624_
*1502 _1625_
*1503 _1626_
*1504 _1627_
*1505 _1628_
*1506 _1629_
*1507 _1630_
*1508 _1631_
*1509 _1632_
*1510 _1633_
*1511 _1634_
*1512 _1635_
*1513 _1636_
*1514 _1637_
*1515 _1638_
*1516 _1639_
*1517 _1640_
*1518 _1641_
*1519 _1642_
*1520 _1643_
*1521 _1644_
*1522 _1645_
*1523 _1646_
*1524 _1647_
*1525 _1648_
*1526 _1649_
*1527 _1650_
*1528 _1651_
*1529 _1652_
*1530 _1653_
*1531 _1654_
*1532 _1655_
*1533 _1656_
*1534 _1657_
*1535 _1658_
*1536 _1659_
*1537 _1660_
*1538 _1661_
*1539 _1662_
*1540 _1663_
*1541 _1664_
*1542 _1665_
*1543 _1666_
*1544 _1667_
*1545 _1668_
*1546 _1669_
*1547 _1670_
*1548 _1671_
*1549 _1672_
*1550 _1673_
*1551 _1674_
*1552 _1675_
*1553 _1676_
*1554 _1677_
*1555 _1678_
*1556 _1679_
*1557 _1680_
*1558 _1681_
*1559 _1682_
*1560 _1683_
*1561 _1684_
*1562 _1685_
*1563 _1686_
*1564 _1687_
*1565 _1688_
*1566 _1689_
*1567 _1690_
*1568 _1691_
*1569 _1692_
*1570 _1693_
*1571 _1694_
*1572 _1695_
*1573 _1696_
*1574 _1697_
*1575 _1698_
*1576 _1699_
*1577 _1700_
*1578 _1701_
*1579 _1702_
*1580 _1703_
*1581 _1704_
*1582 _1705_
*1583 _1706_
*1584 _1707_
*1585 _1708_
*1586 _1709_
*1587 _1710_
*1588 _1711_
*1589 _1712_
*1590 _1713_
*1591 _1714_
*1592 _1715_
*1593 _1716_
*1594 _1717_
*1595 _1718_
*1596 _1719_
*1597 _1720_
*1598 _1721_
*1599 _1722_
*1600 _1723_
*1601 _1724_
*1602 _1725_
*1603 _1726_
*1604 _1727_
*1605 _1728_
*1606 _1729_
*1607 _1730_
*1608 _1731_
*1609 _1732_
*1610 _1733_
*1611 _1734_
*1612 _1735_
*1613 _1736_
*1614 _1737_
*1615 _1738_
*1616 _1739_
*1617 _1740_
*1618 _1741_
*1619 _1742_
*1620 _1743_
*1621 _1744_
*1622 _1745_
*1623 _1746_
*1624 _1747_
*1625 _1748_
*1626 _1749_
*1627 _1750_
*1628 _1751_
*1629 _1752_
*1630 _1753_
*1631 _1754_
*1632 _1755_
*1633 _1756_
*1634 _1757_
*1635 _1758_
*1636 _1759_
*1637 _1760_
*1638 _1761_
*1639 _1762_
*1640 _1763_
*1641 _1764_
*1642 _1765_
*1643 _1766_
*1644 _1767_
*1645 _1768_
*1646 _1769_
*1647 _1770_
*1648 _1771_
*1649 _1772_
*1650 _1773_
*1651 _1774_
*1652 _1775_
*1653 _1776_
*1654 _1777_
*1655 _1778_
*1656 _1779_
*1657 _1780_
*1658 _1781_
*1659 _1782_
*1660 _1783_
*1661 _1784_
*1662 _1785_
*1663 _1786_
*1664 _1787_
*1665 _1788_
*1666 _1789_
*1667 _1790_
*1668 _1791_
*1669 _1792_
*1670 _1793_
*1671 _1794_
*1672 _1795_
*1673 _1796_
*1674 _1797_
*1675 _1798_
*1676 _1799_
*1677 _1800_
*1678 _1801_
*1679 _1802_
*1680 _1803_
*1681 _1804_
*1682 _1805_
*1683 _1806_
*1684 _1807_
*1685 _1808_
*1686 _1809_
*1687 _1810_
*1688 _1811_
*1689 _1812_
*1690 _1813_
*1691 _1814_
*1692 _1815_
*1693 _1816_
*1694 _1817_
*1695 _1818_
*1696 _1819_
*1697 _1820_
*1698 _1821_
*1699 _1822_
*1700 _1823_
*1701 _1824_
*1702 _1825_
*1703 _1826_
*1704 _1827_
*1705 _1828_
*1706 _1829_
*1707 _1830_
*1708 _1831_
*1709 _1832_
*1710 _1833_
*1711 _1834_
*1712 _1835_
*1713 _1836_
*1714 _1837_
*1715 _1838_
*1716 _1839_
*1717 _1840_
*1718 _1841_
*1719 _1842_
*1720 _1843_
*1721 _1844_
*1722 _1845_
*1723 _1846_
*1724 _1847_
*1725 _1848_
*1726 _1849_
*1727 _1850_
*1728 _1851_
*1729 _1852_
*1730 _1853_
*1731 _1854_
*1732 _1855_
*1733 _1856_
*1734 _1857_
*1735 _1858_
*1736 _1859_
*1737 _1860_
*1738 _1861_
*1739 _1862_
*1740 _1863_
*1741 _1864_
*1742 _1865_
*1743 _1866_
*1744 _1867_
*1745 _1868_
*1746 _1869_
*1747 _1870_
*1748 _1871_
*1749 _1872_
*1750 _1873_
*1751 _1874_
*1752 _1875_
*1753 _1876_
*1754 _1877_
*1755 _1878_
*1756 _1879_
*1757 _1880_
*1758 _1881_
*1759 _1882_
*1760 _1883_
*1761 _1884_
*1762 _1885_
*1763 _1886_
*1764 _1887_
*1765 _1888_
*1766 _1889_
*1767 _1890_
*1768 _1891_
*1769 _1892_
*1770 _1893_
*1771 _1894_
*1772 _1895_
*1773 _1896_
*1774 _1897_
*1775 _1898_
*1776 _1899_
*1777 _1900_
*1778 _1901_
*1779 _1902_
*1780 _1903_
*1781 _1904_
*1782 _1905_
*1783 _1906_
*1784 _1907_
*1785 _1908_
*1786 _1909_
*1787 _1910_
*1788 _1911_
*1789 _1912_
*1790 _1913_
*1791 _1914_
*1792 _1915_
*1793 _1916_
*1794 _1917_
*1795 _1918_
*1796 _1919_
*1797 _1920_
*1798 _1921_
*1799 _1922_
*1800 _1923_
*1801 _1924_
*1802 _1925_
*1803 _1926_
*1804 _1927_
*1805 _1928_
*1806 _1929_
*1807 _1930_
*1808 _1931_
*1809 _1932_
*1810 _1933_
*1811 _1934_
*1812 _1935_
*1813 _1936_
*1814 _1937_
*1815 _1938_
*1816 _1939_
*1817 _1940_
*1818 _1941_
*1819 _1942_
*1820 _1943_
*1821 _1944_
*1822 _1945_
*1823 _1946_
*1824 _1947_
*1825 _1948_
*1826 _1949_
*1827 _1950_
*1828 _1951_
*1829 _1952_
*1830 _1953_
*1831 _1954_
*1832 _1955_
*1833 _1956_
*1834 _1957_
*1835 _1958_
*1836 _1959_
*1837 _1960_
*1838 _1961_
*1839 _1962_
*1840 _1963_
*1841 _1964_
*1842 _1965_
*1843 _1966_
*1844 _1967_
*1845 _1968_
*1846 _1969_
*1847 _1970_
*1848 _1971_
*1849 _1972_
*1850 _1973_
*1851 _1974_
*1852 _1975_
*1853 _1976_
*1854 _1977_
*1855 _1978_
*1856 _1979_
*1857 _1980_
*1858 _1981_
*1859 _1982_
*1860 _1983_
*1861 _1984_
*1862 _1985_
*1863 _1986_
*1864 _1987_
*1865 _1988_
*1866 _1989_
*1867 _1990_
*1868 _1991_
*1869 _1992_
*1870 _1993_
*1871 _1994_
*1872 _1995_
*1873 _1996_
*1874 _1997_
*1875 _1998_
*1876 _1999_
*1877 _2000_
*1878 _2001_
*1879 _2002_
*1880 _2003_
*1881 _2004_
*1882 _2005_
*1883 _2006_
*1884 _2007_
*1885 _2008_
*1886 _2009_
*1887 _2010_
*1888 _2011_
*1889 _2012_
*1890 _2013_
*1891 _2014_
*1892 _2015_
*1893 _2016_
*1894 _2017_
*1895 _2018_
*1896 _2019_
*1897 _2020_
*1898 _2021_
*1899 _2022_
*1900 _2023_
*1901 _2024_
*1902 _2025_
*1903 _2026_
*1904 _2027_
*1905 _2028_
*1906 _2029_
*1907 _2030_
*1908 _2031_
*1909 _2032_
*1910 _2033_
*1911 _2034_
*1912 _2035_
*1913 _2036_
*1914 _2037_
*1915 _2038_
*1916 _2039_
*1917 _2040_
*1918 _2041_
*1919 _2042_
*1920 _2043_
*1921 _2044_
*1922 _2045_
*1923 _2046_
*1924 _2047_
*1925 _2048_
*1926 _2049_
*1927 _2050_
*1928 _2051_
*1929 _2052_
*1930 _2053_
*1931 _2054_
*1932 _2055_
*1933 _2056_
*1934 _2057_
*1935 _2058_
*1936 _2059_
*1937 _2060_
*1938 _2061_
*1939 _2062_
*1940 _2063_
*1941 _2064_
*1942 _2065_
*1943 _2066_
*1944 _2067_
*1945 _2068_
*1946 _2069_
*1947 _2070_
*1948 _2071_
*1949 _2072_
*1950 _2073_
*1951 _2074_
*1952 _2075_
*1953 _2076_
*1954 _2077_
*1955 _2078_
*1956 _2079_
*1957 _2080_
*1958 _2081_
*1959 _2082_
*1960 _2083_
*1961 _2084_
*1962 _2085_
*1963 _2086_
*1964 _2087_
*1965 _2088_
*1966 _2089_
*1967 _2090_
*1968 _2091_
*1969 _2092_
*1970 _2093_
*1971 _2094_
*1972 _2095_
*1973 _2096_
*1974 _2097_
*1975 _2098_
*1976 _2099_
*1977 _2100_
*1978 _2101_
*1979 _2102_
*1980 _2103_
*1981 _2104_
*1982 _2105_
*1983 _2106_
*1984 _2107_
*1985 _2108_
*1986 _2109_
*1987 _2110_
*1988 _2111_
*1989 _2112_
*1990 _2113_
*1991 _2114_
*1992 _2115_
*1993 _2116_
*1994 _2117_
*1995 _2118_
*1996 _2119_
*1997 _2120_
*1998 _2121_
*1999 _2122_
*2000 _2123_
*2001 _2124_
*2002 _2125_
*2003 _2126_
*2004 _2127_
*2005 _2128_
*2006 _2129_
*2007 _2130_
*2008 _2131_
*2009 _2132_
*2010 _2133_
*2011 _2134_
*2012 _2135_
*2013 _2136_
*2014 _2137_
*2015 _2138_
*2016 _2139_
*2017 _2140_
*2018 _2141_
*2019 _2142_
*2020 _2143_
*2021 _2144_
*2022 _2145_
*2023 _2146_
*2024 _2147_
*2025 _2148_
*2026 _2149_
*2027 _2150_
*2028 _2151_
*2029 _2152_
*2030 _2153_
*2031 _2154_
*2032 _2155_
*2033 _2156_
*2034 _2157_
*2035 _2158_
*2036 _2159_
*2037 _2160_
*2038 _2161_
*2039 _2162_
*2040 _2163_
*2041 _2164_
*2042 _2165_
*2043 _2166_
*2044 _2167_
*2045 _2168_
*2046 _2169_
*2047 _2170_
*2048 _2171_
*2049 _2172_
*2050 _2173_
*2051 _2174_
*2052 _2175_
*2053 _2176_
*2054 _2177_
*2055 _2178_
*2056 _2179_
*2057 _2180_
*2058 _2181_
*2059 _2182_
*2060 _2183_
*2061 _2184_
*2062 _2185_
*2063 _2186_
*2064 _2187_
*2065 _2188_
*2066 _2189_
*2067 _2190_
*2068 _2191_
*2069 _2192_
*2070 _2193_
*2071 _2194_
*2072 _2195_
*2073 _2196_
*2074 _2197_
*2075 _2198_
*2076 _2199_
*2077 _2200_
*2078 _2201_
*2079 _2202_
*2080 _2203_
*2081 _2204_
*2082 _2205_
*2083 _2206_
*2084 _2207_
*2085 _2208_
*2086 _2209_
*2087 _2210_
*2088 _2211_
*2089 _2212_
*2090 _2213_
*2091 _2214_
*2092 _2215_
*2093 _2216_
*2094 _2217_
*2095 _2218_
*2096 _2219_
*2097 _2220_
*2098 _2221_
*2099 _2222_
*2100 _2223_
*2101 _2224_
*2102 _2225_
*2103 _2226_
*2104 _2227_
*2105 _2228_
*2106 _2229_
*2107 _2230_
*2108 _2231_
*2109 _2232_
*2110 _2233_
*2111 _2234_
*2112 _2235_
*2113 _2236_
*2114 _2237_
*2115 _2238_
*2116 _2239_
*2117 _2240_
*2118 _2241_
*2119 _2242_
*2120 _2243_
*2121 _2244_
*2122 _2245_
*2123 _2246_
*2124 _2247_
*2125 _2248_
*2126 _2249_
*2127 _2250_
*2128 _2251_
*2129 _2252_
*2130 _2253_
*2131 _2254_
*2132 _2255_
*2133 _2256_
*2134 _2257_
*2135 _2258_
*2136 _2259_
*2137 _2260_
*2138 _2261_
*2139 _2262_
*2140 _2263_
*2141 _2264_
*2142 _2265_
*2143 _2266_
*2144 _2267_
*2145 _2268_
*2146 _2269_
*2147 _2270_
*2148 _2271_
*2149 _2272_
*2150 _2273_
*2151 _2274_
*2152 _2275_
*2153 _2276_
*2154 _2277_
*2155 _2278_
*2156 _2279_
*2157 _2280_
*2158 _2281_
*2159 _2282_
*2160 _2283_
*2161 _2284_
*2162 _2285_
*2163 _2286_
*2164 _2287_
*2165 _2288_
*2166 _2289_
*2167 _2290_
*2168 _2291_
*2169 _2292_
*2170 _2293_
*2171 _2294_
*2172 _2295_
*2173 _2296_
*2174 _2297_
*2175 _2298_
*2176 _2299_
*2177 _2300_
*2178 _2301_
*2179 _2302_
*2180 _2303_
*2181 _2304_
*2182 _2305_
*2183 _2306_
*2184 _2307_
*2185 _2308_
*2186 _2309_
*2187 _2310_
*2188 _2311_
*2189 _2312_
*2190 _2313_
*2191 _2314_
*2192 _2315_
*2193 _2316_
*2194 _2317_
*2195 _2318_
*2196 _2319_
*2197 _2320_
*2198 _2321_
*2199 _2322_
*2200 _2323_
*2201 _2324_
*2202 _2325_
*2203 _2326_
*2204 _2327_
*2205 _2328_
*2206 _2329_
*2207 _2330_
*2208 _2331_
*2209 _2332_
*2210 _2333_
*2211 _2334_
*2212 _2335_
*2213 _2336_
*2214 _2337_
*2215 _2338_
*2216 _2339_
*2217 _2340_
*2218 _2341_
*2219 _2342_
*2220 _2343_
*2221 _2344_
*2222 _2345_
*2223 _2346_
*2224 _2347_
*2225 _2348_
*2226 _2349_
*2227 _2350_
*2228 _2351_
*2229 _2352_
*2230 _2353_
*2231 _2354_
*2232 _2355_
*2233 _2356_
*2234 _2357_
*2235 _2358_
*2236 _2359_
*2237 _2360_
*2238 _2361_
*2239 _2362_
*2240 _2363_
*2241 _2364_
*2242 _2365_
*2243 _2366_
*2244 _2367_
*2245 _2368_
*2246 _2369_
*2247 _2370_
*2248 _2371_
*2249 _2372_
*2250 _2373_
*2251 _2374_
*2252 _2375_
*2253 _2376_
*2254 _2377_
*2255 _2378_
*2256 _2379_
*2257 _2380_
*2258 _2381_
*2259 _2382_
*2260 _2383_
*2261 _2384_
*2262 _2385_
*2263 _2386_
*2264 _2387_
*2265 _2388_
*2266 _2389_
*2267 _2390_
*2268 _2391_
*2269 _2392_
*2270 _2393_
*2271 _2394_
*2272 _2395_
*2273 _2396_
*2274 _2397_
*2275 _2398_
*2276 _2399_
*2277 _2400_
*2278 _2401_
*2279 _2402_
*2280 _2403_
*2281 _2404_
*2282 _2405_
*2283 _2406_
*2284 _2407_
*2285 _2408_
*2286 _2409_
*2287 _2410_
*2288 _2411_
*2289 _2412_
*2290 _2413_
*2291 _2414_
*2292 _2415_
*2293 _2416_
*2294 _2417_
*2295 _2418_
*2296 _2419_
*2297 _2420_
*2298 _2421_
*2299 _2422_
*2300 _2423_
*2301 _2424_
*2302 _2425_
*2303 _2426_
*2304 _2427_
*2305 _2428_
*2306 _2429_
*2307 _2430_
*2308 _2431_
*2309 _2432_
*2310 _2433_
*2311 _2434_
*2312 _2435_
*2313 _2436_
*2314 _2437_
*2315 _2438_
*2316 _2439_
*2317 _2440_
*2318 _2441_
*2319 _2442_
*2320 _2443_
*2321 _2444_
*2322 _2445_
*2323 _2446_
*2324 _2447_
*2325 _2448_
*2326 _2449_
*2327 _2450_
*2328 _2451_
*2329 _2452_
*2330 _2453_
*2331 _2454_
*2332 _2455_
*2333 _2456_
*2334 _2457_
*2335 _2458_
*2336 _2459_