*SPEF "ieee 1481-1999"
*DESIGN "R4_butter"
*DATE "11:11:11 Fri 11 11, 1111"
*VENDOR "OpenRCX"
*PROGRAM "Parallel Extraction"
*VERSION "1.0"
*DESIGN_FLOW "NAME_SCOPE LOCAL" "PIN_CAP NONE"
*DIVIDER /
*DELIMITER :
*BUS_DELIMITER []
*T_UNIT 1 NS
*C_UNIT 1 PF
*R_UNIT 1 OHM
*L_UNIT 1 HENRY

*NAME_MAP
*1 CLK
*2 RST
*3 Xio[0]
*4 net12
*5 net13
*6 net14
*7 Xro[0]
*8 net15
*9 net16
*10 net17
*11 c1
*12 c2
*13 c3
*14 net18
*15 net19
*16 net20
*17 net21
*18 net22
*19 net23
*20 net24
*21 net25
*24 xi0[0]
*25 xi0[1]
*26 xi0[2]
*27 xi0[3]
*28 xi1[0]
*29 xi1[1]
*30 xi1[2]
*31 xi1[3]
*32 xi2[0]
*33 xi2[1]
*34 xi2[2]
*35 xi2[3]
*36 xi3[0]
*37 xi3[1]
*38 xi3[2]
*39 xi3[3]
*40 xr0[0]
*41 xr0[1]
*42 xr0[2]
*43 xr0[3]
*44 xr1[0]
*45 xr1[1]
*46 xr1[2]
*47 xr1[3]
*48 xr2[0]
*49 xr2[1]
*50 xr2[2]
*51 xr2[3]
*52 xr3[0]
*53 xr3[1]
*54 xr3[2]
*55 xr3[3]
*56 Q1
*57 Q10
*58 Q12
*59 Q2
*60 Q5
*61 Q6
*62 _00_
*63 _01_
*64 _02_
*65 _03_
*66 _04_
*67 _05_
*68 _06_
*69 _07_
*70 _08_
*71 _09_
*72 _10_
*73 _11_
*74 _12_
*75 _13_
*76 _14_
*77 _15_
*78 net1
*79 net10
*80 net11
*81 net2
*82 net3
*83 net4
*84 net5
*85 net6
*86 net7
*87 net8
*88 net9
*89 FILLER_0_10
*90 FILLER_0_105
*91 FILLER_0_111
*92 FILLER_0_113
*93 FILLER_0_125
*94 FILLER_0_137
*95 FILLER_0_141
*96 FILLER_0_153
*97 FILLER_0_165
*98 FILLER_0_169
*99 FILLER_0_181
*100 FILLER_0_19
*101 FILLER_0_193
*102 FILLER_0_197
*103 FILLER_0_209
*104 FILLER_0_221
*105 FILLER_0_225
*106 FILLER_0_237
*107 FILLER_0_249
*108 FILLER_0_253
*109 FILLER_0_258
*110 FILLER_0_26
*111 FILLER_0_265
*112 FILLER_0_272
*113 FILLER_0_281
*114 FILLER_0_286
*115 FILLER_0_29
*116 FILLER_0_293
*117 FILLER_0_3
*118 FILLER_0_300
*119 FILLER_0_309
*120 FILLER_0_314
*121 FILLER_0_321
*122 FILLER_0_328
*123 FILLER_0_33
*124 FILLER_0_337
*125 FILLER_0_342
*126 FILLER_0_349
*127 FILLER_0_357
*128 FILLER_0_362
*129 FILLER_0_365
*130 FILLER_0_37
*131 FILLER_0_44
*132 FILLER_0_51
*133 FILLER_0_55
*134 FILLER_0_57
*135 FILLER_0_65
*136 FILLER_0_73
*137 FILLER_0_81
*138 FILLER_0_85
*139 FILLER_0_97
*140 FILLER_10_109
*141 FILLER_10_121
*142 FILLER_10_133
*143 FILLER_10_139
*144 FILLER_10_141
*145 FILLER_10_15
*146 FILLER_10_153
*147 FILLER_10_165
*148 FILLER_10_177
*149 FILLER_10_189
*150 FILLER_10_195
*151 FILLER_10_197
*152 FILLER_10_209
*153 FILLER_10_221
*154 FILLER_10_233
*155 FILLER_10_245
*156 FILLER_10_251
*157 FILLER_10_253
*158 FILLER_10_265
*159 FILLER_10_27
*160 FILLER_10_277
*161 FILLER_10_289
*162 FILLER_10_29
*163 FILLER_10_3
*164 FILLER_10_301
*165 FILLER_10_307
*166 FILLER_10_309
*167 FILLER_10_321
*168 FILLER_10_333
*169 FILLER_10_345
*170 FILLER_10_357
*171 FILLER_10_363
*172 FILLER_10_365
*173 FILLER_10_41
*174 FILLER_10_53
*175 FILLER_10_65
*176 FILLER_10_77
*177 FILLER_10_83
*178 FILLER_10_85
*179 FILLER_10_97
*180 FILLER_11_105
*181 FILLER_11_111
*182 FILLER_11_113
*183 FILLER_11_125
*184 FILLER_11_137
*185 FILLER_11_149
*186 FILLER_11_15
*187 FILLER_11_161
*188 FILLER_11_167
*189 FILLER_11_169
*190 FILLER_11_181
*191 FILLER_11_193
*192 FILLER_11_205
*193 FILLER_11_217
*194 FILLER_11_223
*195 FILLER_11_225
*196 FILLER_11_237
*197 FILLER_11_249
*198 FILLER_11_261
*199 FILLER_11_27
*200 FILLER_11_273
*201 FILLER_11_279
*202 FILLER_11_281
*203 FILLER_11_293
*204 FILLER_11_3
*205 FILLER_11_305
*206 FILLER_11_317
*207 FILLER_11_329
*208 FILLER_11_335
*209 FILLER_11_337
*210 FILLER_11_349
*211 FILLER_11_361
*212 FILLER_11_367
*213 FILLER_11_39
*214 FILLER_11_51
*215 FILLER_11_55
*216 FILLER_11_57
*217 FILLER_11_69
*218 FILLER_11_81
*219 FILLER_11_93
*220 FILLER_12_109
*221 FILLER_12_121
*222 FILLER_12_133
*223 FILLER_12_139
*224 FILLER_12_141
*225 FILLER_12_15
*226 FILLER_12_153
*227 FILLER_12_165
*228 FILLER_12_177
*229 FILLER_12_189
*230 FILLER_12_195
*231 FILLER_12_197
*232 FILLER_12_209
*233 FILLER_12_221
*234 FILLER_12_233
*235 FILLER_12_245
*236 FILLER_12_251
*237 FILLER_12_253
*238 FILLER_12_265
*239 FILLER_12_27
*240 FILLER_12_277
*241 FILLER_12_289
*242 FILLER_12_29
*243 FILLER_12_3
*244 FILLER_12_301
*245 FILLER_12_307
*246 FILLER_12_309
*247 FILLER_12_321
*248 FILLER_12_333
*249 FILLER_12_345
*250 FILLER_12_357
*251 FILLER_12_363
*252 FILLER_12_365
*253 FILLER_12_41
*254 FILLER_12_53
*255 FILLER_12_65
*256 FILLER_12_77
*257 FILLER_12_83
*258 FILLER_12_85
*259 FILLER_12_97
*260 FILLER_13_105
*261 FILLER_13_111
*262 FILLER_13_113
*263 FILLER_13_125
*264 FILLER_13_137
*265 FILLER_13_149
*266 FILLER_13_15
*267 FILLER_13_161
*268 FILLER_13_167
*269 FILLER_13_169
*270 FILLER_13_181
*271 FILLER_13_193
*272 FILLER_13_205
*273 FILLER_13_217
*274 FILLER_13_223
*275 FILLER_13_225
*276 FILLER_13_237
*277 FILLER_13_249
*278 FILLER_13_261
*279 FILLER_13_27
*280 FILLER_13_273
*281 FILLER_13_279
*282 FILLER_13_281
*283 FILLER_13_293
*284 FILLER_13_3
*285 FILLER_13_305
*286 FILLER_13_317
*287 FILLER_13_329
*288 FILLER_13_335
*289 FILLER_13_337
*290 FILLER_13_349
*291 FILLER_13_361
*292 FILLER_13_367
*293 FILLER_13_39
*294 FILLER_13_51
*295 FILLER_13_55
*296 FILLER_13_57
*297 FILLER_13_69
*298 FILLER_13_81
*299 FILLER_13_93
*300 FILLER_14_109
*301 FILLER_14_121
*302 FILLER_14_133
*303 FILLER_14_139
*304 FILLER_14_141
*305 FILLER_14_15
*306 FILLER_14_153
*307 FILLER_14_165
*308 FILLER_14_177
*309 FILLER_14_189
*310 FILLER_14_195
*311 FILLER_14_197
*312 FILLER_14_209
*313 FILLER_14_221
*314 FILLER_14_233
*315 FILLER_14_245
*316 FILLER_14_251
*317 FILLER_14_253
*318 FILLER_14_265
*319 FILLER_14_27
*320 FILLER_14_277
*321 FILLER_14_289
*322 FILLER_14_29
*323 FILLER_14_3
*324 FILLER_14_301
*325 FILLER_14_307
*326 FILLER_14_309
*327 FILLER_14_321
*328 FILLER_14_333
*329 FILLER_14_345
*330 FILLER_14_357
*331 FILLER_14_363
*332 FILLER_14_365
*333 FILLER_14_41
*334 FILLER_14_53
*335 FILLER_14_65
*336 FILLER_14_77
*337 FILLER_14_83
*338 FILLER_14_85
*339 FILLER_14_97
*340 FILLER_15_105
*341 FILLER_15_111
*342 FILLER_15_113
*343 FILLER_15_125
*344 FILLER_15_137
*345 FILLER_15_149
*346 FILLER_15_15
*347 FILLER_15_161
*348 FILLER_15_167
*349 FILLER_15_169
*350 FILLER_15_181
*351 FILLER_15_193
*352 FILLER_15_205
*353 FILLER_15_217
*354 FILLER_15_223
*355 FILLER_15_225
*356 FILLER_15_237
*357 FILLER_15_249
*358 FILLER_15_261
*359 FILLER_15_27
*360 FILLER_15_273
*361 FILLER_15_279
*362 FILLER_15_281
*363 FILLER_15_293
*364 FILLER_15_3
*365 FILLER_15_305
*366 FILLER_15_317
*367 FILLER_15_329
*368 FILLER_15_335
*369 FILLER_15_337
*370 FILLER_15_349
*371 FILLER_15_361
*372 FILLER_15_367
*373 FILLER_15_39
*374 FILLER_15_51
*375 FILLER_15_55
*376 FILLER_15_57
*377 FILLER_15_69
*378 FILLER_15_81
*379 FILLER_15_93
*380 FILLER_16_109
*381 FILLER_16_121
*382 FILLER_16_133
*383 FILLER_16_139
*384 FILLER_16_141
*385 FILLER_16_15
*386 FILLER_16_153
*387 FILLER_16_165
*388 FILLER_16_177
*389 FILLER_16_189
*390 FILLER_16_195
*391 FILLER_16_197
*392 FILLER_16_209
*393 FILLER_16_221
*394 FILLER_16_233
*395 FILLER_16_245
*396 FILLER_16_251
*397 FILLER_16_253
*398 FILLER_16_265
*399 FILLER_16_27
*400 FILLER_16_277
*401 FILLER_16_289
*402 FILLER_16_29
*403 FILLER_16_3
*404 FILLER_16_301
*405 FILLER_16_307
*406 FILLER_16_309
*407 FILLER_16_321
*408 FILLER_16_333
*409 FILLER_16_345
*410 FILLER_16_357
*411 FILLER_16_363
*412 FILLER_16_365
*413 FILLER_16_41
*414 FILLER_16_53
*415 FILLER_16_65
*416 FILLER_16_77
*417 FILLER_16_83
*418 FILLER_16_85
*419 FILLER_16_97
*420 FILLER_17_105
*421 FILLER_17_111
*422 FILLER_17_113
*423 FILLER_17_125
*424 FILLER_17_137
*425 FILLER_17_149
*426 FILLER_17_15
*427 FILLER_17_161
*428 FILLER_17_167
*429 FILLER_17_169
*430 FILLER_17_181
*431 FILLER_17_193
*432 FILLER_17_205
*433 FILLER_17_217
*434 FILLER_17_223
*435 FILLER_17_225
*436 FILLER_17_237
*437 FILLER_17_249
*438 FILLER_17_261
*439 FILLER_17_27
*440 FILLER_17_273
*441 FILLER_17_279
*442 FILLER_17_281
*443 FILLER_17_293
*444 FILLER_17_3
*445 FILLER_17_305
*446 FILLER_17_317
*447 FILLER_17_329
*448 FILLER_17_335
*449 FILLER_17_337
*450 FILLER_17_349
*451 FILLER_17_361
*452 FILLER_17_367
*453 FILLER_17_39
*454 FILLER_17_51
*455 FILLER_17_55
*456 FILLER_17_57
*457 FILLER_17_69
*458 FILLER_17_81
*459 FILLER_17_93
*460 FILLER_18_109
*461 FILLER_18_121
*462 FILLER_18_133
*463 FILLER_18_139
*464 FILLER_18_141
*465 FILLER_18_15
*466 FILLER_18_153
*467 FILLER_18_165
*468 FILLER_18_177
*469 FILLER_18_189
*470 FILLER_18_195
*471 FILLER_18_197
*472 FILLER_18_209
*473 FILLER_18_221
*474 FILLER_18_233
*475 FILLER_18_245
*476 FILLER_18_251
*477 FILLER_18_253
*478 FILLER_18_265
*479 FILLER_18_27
*480 FILLER_18_277
*481 FILLER_18_289
*482 FILLER_18_29
*483 FILLER_18_3
*484 FILLER_18_301
*485 FILLER_18_307
*486 FILLER_18_309
*487 FILLER_18_321
*488 FILLER_18_333
*489 FILLER_18_345
*490 FILLER_18_357
*491 FILLER_18_363
*492 FILLER_18_365
*493 FILLER_18_41
*494 FILLER_18_53
*495 FILLER_18_65
*496 FILLER_18_77
*497 FILLER_18_83
*498 FILLER_18_85
*499 FILLER_18_97
*500 FILLER_19_105
*501 FILLER_19_111
*502 FILLER_19_113
*503 FILLER_19_125
*504 FILLER_19_137
*505 FILLER_19_149
*506 FILLER_19_15
*507 FILLER_19_161
*508 FILLER_19_167
*509 FILLER_19_169
*510 FILLER_19_181
*511 FILLER_19_193
*512 FILLER_19_205
*513 FILLER_19_217
*514 FILLER_19_223
*515 FILLER_19_225
*516 FILLER_19_237
*517 FILLER_19_249
*518 FILLER_19_261
*519 FILLER_19_27
*520 FILLER_19_273
*521 FILLER_19_279
*522 FILLER_19_281
*523 FILLER_19_293
*524 FILLER_19_3
*525 FILLER_19_305
*526 FILLER_19_317
*527 FILLER_19_329
*528 FILLER_19_335
*529 FILLER_19_337
*530 FILLER_19_349
*531 FILLER_19_361
*532 FILLER_19_367
*533 FILLER_19_39
*534 FILLER_19_51
*535 FILLER_19_55
*536 FILLER_19_57
*537 FILLER_19_69
*538 FILLER_19_81
*539 FILLER_19_93
*540 FILLER_1_105
*541 FILLER_1_111
*542 FILLER_1_113
*543 FILLER_1_125
*544 FILLER_1_137
*545 FILLER_1_149
*546 FILLER_1_15
*547 FILLER_1_161
*548 FILLER_1_167
*549 FILLER_1_169
*550 FILLER_1_181
*551 FILLER_1_193
*552 FILLER_1_205
*553 FILLER_1_21
*554 FILLER_1_217
*555 FILLER_1_223
*556 FILLER_1_225
*557 FILLER_1_243
*558 FILLER_1_263
*559 FILLER_1_27
*560 FILLER_1_275
*561 FILLER_1_279
*562 FILLER_1_281
*563 FILLER_1_293
*564 FILLER_1_297
*565 FILLER_1_3
*566 FILLER_1_301
*567 FILLER_1_313
*568 FILLER_1_325
*569 FILLER_1_333
*570 FILLER_1_337
*571 FILLER_1_345
*572 FILLER_1_349
*573 FILLER_1_353
*574 FILLER_1_357
*575 FILLER_1_361
*576 FILLER_1_365
*577 FILLER_1_47
*578 FILLER_1_55
*579 FILLER_1_57
*580 FILLER_1_66
*581 FILLER_1_9
*582 FILLER_1_90
*583 FILLER_1_98
*584 FILLER_20_109
*585 FILLER_20_121
*586 FILLER_20_133
*587 FILLER_20_139
*588 FILLER_20_141
*589 FILLER_20_15
*590 FILLER_20_153
*591 FILLER_20_165
*592 FILLER_20_177
*593 FILLER_20_189
*594 FILLER_20_195
*595 FILLER_20_197
*596 FILLER_20_209
*597 FILLER_20_221
*598 FILLER_20_233
*599 FILLER_20_245
*600 FILLER_20_251
*601 FILLER_20_253
*602 FILLER_20_265
*603 FILLER_20_27
*604 FILLER_20_277
*605 FILLER_20_289
*606 FILLER_20_29
*607 FILLER_20_3
*608 FILLER_20_301
*609 FILLER_20_307
*610 FILLER_20_309
*611 FILLER_20_321
*612 FILLER_20_333
*613 FILLER_20_345
*614 FILLER_20_357
*615 FILLER_20_363
*616 FILLER_20_365
*617 FILLER_20_41
*618 FILLER_20_53
*619 FILLER_20_65
*620 FILLER_20_77
*621 FILLER_20_83
*622 FILLER_20_85
*623 FILLER_20_97
*624 FILLER_21_105
*625 FILLER_21_111
*626 FILLER_21_113
*627 FILLER_21_125
*628 FILLER_21_137
*629 FILLER_21_149
*630 FILLER_21_15
*631 FILLER_21_161
*632 FILLER_21_167
*633 FILLER_21_169
*634 FILLER_21_181
*635 FILLER_21_193
*636 FILLER_21_205
*637 FILLER_21_217
*638 FILLER_21_223
*639 FILLER_21_225
*640 FILLER_21_237
*641 FILLER_21_249
*642 FILLER_21_261
*643 FILLER_21_27
*644 FILLER_21_273
*645 FILLER_21_279
*646 FILLER_21_281
*647 FILLER_21_293
*648 FILLER_21_3
*649 FILLER_21_305
*650 FILLER_21_317
*651 FILLER_21_329
*652 FILLER_21_335
*653 FILLER_21_337
*654 FILLER_21_349
*655 FILLER_21_361
*656 FILLER_21_367
*657 FILLER_21_39
*658 FILLER_21_51
*659 FILLER_21_55
*660 FILLER_21_57
*661 FILLER_21_69
*662 FILLER_21_81
*663 FILLER_21_93
*664 FILLER_22_109
*665 FILLER_22_121
*666 FILLER_22_133
*667 FILLER_22_139
*668 FILLER_22_141
*669 FILLER_22_15
*670 FILLER_22_153
*671 FILLER_22_165
*672 FILLER_22_177
*673 FILLER_22_189
*674 FILLER_22_195
*675 FILLER_22_197
*676 FILLER_22_209
*677 FILLER_22_221
*678 FILLER_22_233
*679 FILLER_22_245
*680 FILLER_22_251
*681 FILLER_22_253
*682 FILLER_22_265
*683 FILLER_22_27
*684 FILLER_22_277
*685 FILLER_22_289
*686 FILLER_22_29
*687 FILLER_22_3
*688 FILLER_22_301
*689 FILLER_22_307
*690 FILLER_22_309
*691 FILLER_22_321
*692 FILLER_22_333
*693 FILLER_22_345
*694 FILLER_22_357
*695 FILLER_22_363
*696 FILLER_22_365
*697 FILLER_22_41
*698 FILLER_22_53
*699 FILLER_22_65
*700 FILLER_22_77
*701 FILLER_22_83
*702 FILLER_22_85
*703 FILLER_22_97
*704 FILLER_23_105
*705 FILLER_23_111
*706 FILLER_23_113
*707 FILLER_23_125
*708 FILLER_23_137
*709 FILLER_23_149
*710 FILLER_23_15
*711 FILLER_23_161
*712 FILLER_23_167
*713 FILLER_23_169
*714 FILLER_23_181
*715 FILLER_23_193
*716 FILLER_23_205
*717 FILLER_23_217
*718 FILLER_23_223
*719 FILLER_23_225
*720 FILLER_23_237
*721 FILLER_23_249
*722 FILLER_23_261
*723 FILLER_23_27
*724 FILLER_23_273
*725 FILLER_23_279
*726 FILLER_23_281
*727 FILLER_23_293
*728 FILLER_23_3
*729 FILLER_23_305
*730 FILLER_23_317
*731 FILLER_23_329
*732 FILLER_23_335
*733 FILLER_23_337
*734 FILLER_23_349
*735 FILLER_23_361
*736 FILLER_23_367
*737 FILLER_23_39
*738 FILLER_23_51
*739 FILLER_23_55
*740 FILLER_23_57
*741 FILLER_23_69
*742 FILLER_23_81
*743 FILLER_23_93
*744 FILLER_24_109
*745 FILLER_24_121
*746 FILLER_24_133
*747 FILLER_24_139
*748 FILLER_24_141
*749 FILLER_24_15
*750 FILLER_24_153
*751 FILLER_24_165
*752 FILLER_24_177
*753 FILLER_24_189
*754 FILLER_24_195
*755 FILLER_24_197
*756 FILLER_24_209
*757 FILLER_24_221
*758 FILLER_24_233
*759 FILLER_24_245
*760 FILLER_24_251
*761 FILLER_24_253
*762 FILLER_24_265
*763 FILLER_24_27
*764 FILLER_24_277
*765 FILLER_24_289
*766 FILLER_24_29
*767 FILLER_24_3
*768 FILLER_24_301
*769 FILLER_24_307
*770 FILLER_24_309
*771 FILLER_24_321
*772 FILLER_24_333
*773 FILLER_24_345
*774 FILLER_24_357
*775 FILLER_24_363
*776 FILLER_24_365
*777 FILLER_24_41
*778 FILLER_24_53
*779 FILLER_24_65
*780 FILLER_24_77
*781 FILLER_24_83
*782 FILLER_24_85
*783 FILLER_24_97
*784 FILLER_25_105
*785 FILLER_25_111
*786 FILLER_25_113
*787 FILLER_25_125
*788 FILLER_25_137
*789 FILLER_25_149
*790 FILLER_25_15
*791 FILLER_25_161
*792 FILLER_25_167
*793 FILLER_25_169
*794 FILLER_25_181
*795 FILLER_25_193
*796 FILLER_25_205
*797 FILLER_25_217
*798 FILLER_25_223
*799 FILLER_25_225
*800 FILLER_25_237
*801 FILLER_25_249
*802 FILLER_25_261
*803 FILLER_25_27
*804 FILLER_25_273
*805 FILLER_25_279
*806 FILLER_25_281
*807 FILLER_25_293
*808 FILLER_25_3
*809 FILLER_25_305
*810 FILLER_25_317
*811 FILLER_25_329
*812 FILLER_25_335
*813 FILLER_25_337
*814 FILLER_25_349
*815 FILLER_25_361
*816 FILLER_25_367
*817 FILLER_25_39
*818 FILLER_25_51
*819 FILLER_25_55
*820 FILLER_25_57
*821 FILLER_25_69
*822 FILLER_25_81
*823 FILLER_25_93
*824 FILLER_26_109
*825 FILLER_26_121
*826 FILLER_26_133
*827 FILLER_26_139
*828 FILLER_26_141
*829 FILLER_26_15
*830 FILLER_26_153
*831 FILLER_26_165
*832 FILLER_26_177
*833 FILLER_26_189
*834 FILLER_26_195
*835 FILLER_26_197
*836 FILLER_26_209
*837 FILLER_26_221
*838 FILLER_26_233
*839 FILLER_26_245
*840 FILLER_26_251
*841 FILLER_26_253
*842 FILLER_26_265
*843 FILLER_26_27
*844 FILLER_26_277
*845 FILLER_26_289
*846 FILLER_26_29
*847 FILLER_26_3
*848 FILLER_26_301
*849 FILLER_26_307
*850 FILLER_26_309
*851 FILLER_26_321
*852 FILLER_26_333
*853 FILLER_26_345
*854 FILLER_26_357
*855 FILLER_26_363
*856 FILLER_26_365
*857 FILLER_26_41
*858 FILLER_26_53
*859 FILLER_26_65
*860 FILLER_26_77
*861 FILLER_26_83
*862 FILLER_26_85
*863 FILLER_26_97
*864 FILLER_27_105
*865 FILLER_27_111
*866 FILLER_27_113
*867 FILLER_27_125
*868 FILLER_27_137
*869 FILLER_27_149
*870 FILLER_27_15
*871 FILLER_27_161
*872 FILLER_27_167
*873 FILLER_27_169
*874 FILLER_27_181
*875 FILLER_27_193
*876 FILLER_27_205
*877 FILLER_27_217
*878 FILLER_27_223
*879 FILLER_27_225
*880 FILLER_27_237
*881 FILLER_27_249
*882 FILLER_27_261
*883 FILLER_27_27
*884 FILLER_27_273
*885 FILLER_27_279
*886 FILLER_27_281
*887 FILLER_27_293
*888 FILLER_27_3
*889 FILLER_27_305
*890 FILLER_27_317
*891 FILLER_27_329
*892 FILLER_27_335
*893 FILLER_27_337
*894 FILLER_27_349
*895 FILLER_27_361
*896 FILLER_27_367
*897 FILLER_27_39
*898 FILLER_27_51
*899 FILLER_27_55
*900 FILLER_27_57
*901 FILLER_27_69
*902 FILLER_27_81
*903 FILLER_27_93
*904 FILLER_28_109
*905 FILLER_28_121
*906 FILLER_28_133
*907 FILLER_28_139
*908 FILLER_28_141
*909 FILLER_28_15
*910 FILLER_28_153
*911 FILLER_28_165
*912 FILLER_28_177
*913 FILLER_28_189
*914 FILLER_28_195
*915 FILLER_28_197
*916 FILLER_28_209
*917 FILLER_28_221
*918 FILLER_28_233
*919 FILLER_28_245
*920 FILLER_28_251
*921 FILLER_28_253
*922 FILLER_28_265
*923 FILLER_28_27
*924 FILLER_28_277
*925 FILLER_28_289
*926 FILLER_28_29
*927 FILLER_28_3
*928 FILLER_28_301
*929 FILLER_28_307
*930 FILLER_28_309
*931 FILLER_28_321
*932 FILLER_28_333
*933 FILLER_28_345
*934 FILLER_28_357
*935 FILLER_28_363
*936 FILLER_28_365
*937 FILLER_28_41
*938 FILLER_28_53
*939 FILLER_28_65
*940 FILLER_28_77
*941 FILLER_28_83
*942 FILLER_28_85
*943 FILLER_28_97
*944 FILLER_29_105
*945 FILLER_29_111
*946 FILLER_29_113
*947 FILLER_29_125
*948 FILLER_29_137
*949 FILLER_29_149
*950 FILLER_29_15
*951 FILLER_29_161
*952 FILLER_29_167
*953 FILLER_29_169
*954 FILLER_29_181
*955 FILLER_29_193
*956 FILLER_29_205
*957 FILLER_29_217
*958 FILLER_29_223
*959 FILLER_29_225
*960 FILLER_29_237
*961 FILLER_29_249
*962 FILLER_29_261
*963 FILLER_29_27
*964 FILLER_29_273
*965 FILLER_29_279
*966 FILLER_29_281
*967 FILLER_29_293
*968 FILLER_29_3
*969 FILLER_29_305
*970 FILLER_29_317
*971 FILLER_29_329
*972 FILLER_29_335
*973 FILLER_29_337
*974 FILLER_29_349
*975 FILLER_29_361
*976 FILLER_29_367
*977 FILLER_29_39
*978 FILLER_29_51
*979 FILLER_29_55
*980 FILLER_29_57
*981 FILLER_29_69
*982 FILLER_29_81
*983 FILLER_29_93
*984 FILLER_2_106
*985 FILLER_2_114
*986 FILLER_2_126
*987 FILLER_2_138
*988 FILLER_2_141
*989 FILLER_2_153
*990 FILLER_2_165
*991 FILLER_2_177
*992 FILLER_2_189
*993 FILLER_2_195
*994 FILLER_2_197
*995 FILLER_2_209
*996 FILLER_2_221
*997 FILLER_2_233
*998 FILLER_2_245
*999 FILLER_2_251
*1000 FILLER_2_253
*1001 FILLER_2_26
*1002 FILLER_2_265
*1003 FILLER_2_277
*1004 FILLER_2_289
*1005 FILLER_2_29
*1006 FILLER_2_3
*1007 FILLER_2_301
*1008 FILLER_2_307
*1009 FILLER_2_309
*1010 FILLER_2_321
*1011 FILLER_2_333
*1012 FILLER_2_34
*1013 FILLER_2_345
*1014 FILLER_2_357
*1015 FILLER_2_362
*1016 FILLER_2_365
*1017 FILLER_2_49
*1018 FILLER_2_62
*1019 FILLER_2_71
*1020 FILLER_2_83
*1021 FILLER_2_85
*1022 FILLER_2_89
*1023 FILLER_2_9
*1024 FILLER_2_94
*1025 FILLER_30_109
*1026 FILLER_30_121
*1027 FILLER_30_133
*1028 FILLER_30_139
*1029 FILLER_30_141
*1030 FILLER_30_15
*1031 FILLER_30_153
*1032 FILLER_30_165
*1033 FILLER_30_177
*1034 FILLER_30_189
*1035 FILLER_30_195
*1036 FILLER_30_197
*1037 FILLER_30_209
*1038 FILLER_30_221
*1039 FILLER_30_233
*1040 FILLER_30_245
*1041 FILLER_30_251
*1042 FILLER_30_253
*1043 FILLER_30_265
*1044 FILLER_30_27
*1045 FILLER_30_277
*1046 FILLER_30_289
*1047 FILLER_30_29
*1048 FILLER_30_3
*1049 FILLER_30_301
*1050 FILLER_30_307
*1051 FILLER_30_309
*1052 FILLER_30_321
*1053 FILLER_30_333
*1054 FILLER_30_345
*1055 FILLER_30_357
*1056 FILLER_30_363
*1057 FILLER_30_365
*1058 FILLER_30_41
*1059 FILLER_30_53
*1060 FILLER_30_65
*1061 FILLER_30_77
*1062 FILLER_30_83
*1063 FILLER_30_85
*1064 FILLER_30_97
*1065 FILLER_31_105
*1066 FILLER_31_111
*1067 FILLER_31_113
*1068 FILLER_31_125
*1069 FILLER_31_137
*1070 FILLER_31_149
*1071 FILLER_31_15
*1072 FILLER_31_161
*1073 FILLER_31_167
*1074 FILLER_31_169
*1075 FILLER_31_181
*1076 FILLER_31_193
*1077 FILLER_31_205
*1078 FILLER_31_217
*1079 FILLER_31_223
*1080 FILLER_31_225
*1081 FILLER_31_237
*1082 FILLER_31_249
*1083 FILLER_31_261
*1084 FILLER_31_27
*1085 FILLER_31_273
*1086 FILLER_31_279
*1087 FILLER_31_281
*1088 FILLER_31_293
*1089 FILLER_31_3
*1090 FILLER_31_305
*1091 FILLER_31_317
*1092 FILLER_31_329
*1093 FILLER_31_335
*1094 FILLER_31_337
*1095 FILLER_31_349
*1096 FILLER_31_361
*1097 FILLER_31_367
*1098 FILLER_31_39
*1099 FILLER_31_51
*1100 FILLER_31_55
*1101 FILLER_31_57
*1102 FILLER_31_69
*1103 FILLER_31_81
*1104 FILLER_31_93
*1105 FILLER_32_109
*1106 FILLER_32_121
*1107 FILLER_32_133
*1108 FILLER_32_139
*1109 FILLER_32_141
*1110 FILLER_32_15
*1111 FILLER_32_153
*1112 FILLER_32_165
*1113 FILLER_32_177
*1114 FILLER_32_189
*1115 FILLER_32_195
*1116 FILLER_32_197
*1117 FILLER_32_209
*1118 FILLER_32_221
*1119 FILLER_32_233
*1120 FILLER_32_245
*1121 FILLER_32_251
*1122 FILLER_32_253
*1123 FILLER_32_265
*1124 FILLER_32_27
*1125 FILLER_32_277
*1126 FILLER_32_289
*1127 FILLER_32_29
*1128 FILLER_32_3
*1129 FILLER_32_301
*1130 FILLER_32_307
*1131 FILLER_32_309
*1132 FILLER_32_321
*1133 FILLER_32_333
*1134 FILLER_32_345
*1135 FILLER_32_357
*1136 FILLER_32_363
*1137 FILLER_32_365
*1138 FILLER_32_41
*1139 FILLER_32_53
*1140 FILLER_32_65
*1141 FILLER_32_77
*1142 FILLER_32_83
*1143 FILLER_32_85
*1144 FILLER_32_97
*1145 FILLER_33_105
*1146 FILLER_33_111
*1147 FILLER_33_113
*1148 FILLER_33_125
*1149 FILLER_33_137
*1150 FILLER_33_149
*1151 FILLER_33_15
*1152 FILLER_33_161
*1153 FILLER_33_167
*1154 FILLER_33_169
*1155 FILLER_33_181
*1156 FILLER_33_193
*1157 FILLER_33_205
*1158 FILLER_33_217
*1159 FILLER_33_223
*1160 FILLER_33_225
*1161 FILLER_33_237
*1162 FILLER_33_249
*1163 FILLER_33_261
*1164 FILLER_33_27
*1165 FILLER_33_273
*1166 FILLER_33_279
*1167 FILLER_33_281
*1168 FILLER_33_293
*1169 FILLER_33_3
*1170 FILLER_33_305
*1171 FILLER_33_317
*1172 FILLER_33_329
*1173 FILLER_33_335
*1174 FILLER_33_337
*1175 FILLER_33_349
*1176 FILLER_33_361
*1177 FILLER_33_367
*1178 FILLER_33_39
*1179 FILLER_33_51
*1180 FILLER_33_55
*1181 FILLER_33_57
*1182 FILLER_33_69
*1183 FILLER_33_81
*1184 FILLER_33_93
*1185 FILLER_34_109
*1186 FILLER_34_121
*1187 FILLER_34_133
*1188 FILLER_34_139
*1189 FILLER_34_141
*1190 FILLER_34_15
*1191 FILLER_34_153
*1192 FILLER_34_165
*1193 FILLER_34_177
*1194 FILLER_34_189
*1195 FILLER_34_195
*1196 FILLER_34_197
*1197 FILLER_34_209
*1198 FILLER_34_221
*1199 FILLER_34_233
*1200 FILLER_34_245
*1201 FILLER_34_251
*1202 FILLER_34_253
*1203 FILLER_34_265
*1204 FILLER_34_27
*1205 FILLER_34_277
*1206 FILLER_34_289
*1207 FILLER_34_29
*1208 FILLER_34_3
*1209 FILLER_34_301
*1210 FILLER_34_307
*1211 FILLER_34_309
*1212 FILLER_34_321
*1213 FILLER_34_333
*1214 FILLER_34_345
*1215 FILLER_34_357
*1216 FILLER_34_363
*1217 FILLER_34_365
*1218 FILLER_34_41
*1219 FILLER_34_53
*1220 FILLER_34_65
*1221 FILLER_34_77
*1222 FILLER_34_83
*1223 FILLER_34_85
*1224 FILLER_34_97
*1225 FILLER_35_105
*1226 FILLER_35_111
*1227 FILLER_35_113
*1228 FILLER_35_125
*1229 FILLER_35_137
*1230 FILLER_35_149
*1231 FILLER_35_15
*1232 FILLER_35_161
*1233 FILLER_35_167
*1234 FILLER_35_169
*1235 FILLER_35_181
*1236 FILLER_35_193
*1237 FILLER_35_205
*1238 FILLER_35_217
*1239 FILLER_35_223
*1240 FILLER_35_225
*1241 FILLER_35_237
*1242 FILLER_35_249
*1243 FILLER_35_261
*1244 FILLER_35_27
*1245 FILLER_35_273
*1246 FILLER_35_279
*1247 FILLER_35_281
*1248 FILLER_35_293
*1249 FILLER_35_3
*1250 FILLER_35_305
*1251 FILLER_35_317
*1252 FILLER_35_329
*1253 FILLER_35_335
*1254 FILLER_35_337
*1255 FILLER_35_349
*1256 FILLER_35_361
*1257 FILLER_35_367
*1258 FILLER_35_39
*1259 FILLER_35_51
*1260 FILLER_35_55
*1261 FILLER_35_57
*1262 FILLER_35_69
*1263 FILLER_35_81
*1264 FILLER_35_93
*1265 FILLER_36_109
*1266 FILLER_36_121
*1267 FILLER_36_133
*1268 FILLER_36_139
*1269 FILLER_36_141
*1270 FILLER_36_15
*1271 FILLER_36_153
*1272 FILLER_36_165
*1273 FILLER_36_177
*1274 FILLER_36_189
*1275 FILLER_36_195
*1276 FILLER_36_197
*1277 FILLER_36_209
*1278 FILLER_36_221
*1279 FILLER_36_233
*1280 FILLER_36_245
*1281 FILLER_36_251
*1282 FILLER_36_253
*1283 FILLER_36_265
*1284 FILLER_36_27
*1285 FILLER_36_277
*1286 FILLER_36_289
*1287 FILLER_36_29
*1288 FILLER_36_3
*1289 FILLER_36_301
*1290 FILLER_36_307
*1291 FILLER_36_309
*1292 FILLER_36_321
*1293 FILLER_36_333
*1294 FILLER_36_345
*1295 FILLER_36_357
*1296 FILLER_36_363
*1297 FILLER_36_365
*1298 FILLER_36_41
*1299 FILLER_36_53
*1300 FILLER_36_65
*1301 FILLER_36_77
*1302 FILLER_36_83
*1303 FILLER_36_85
*1304 FILLER_36_97
*1305 FILLER_37_105
*1306 FILLER_37_111
*1307 FILLER_37_113
*1308 FILLER_37_125
*1309 FILLER_37_137
*1310 FILLER_37_149
*1311 FILLER_37_15
*1312 FILLER_37_161
*1313 FILLER_37_167
*1314 FILLER_37_169
*1315 FILLER_37_181
*1316 FILLER_37_193
*1317 FILLER_37_205
*1318 FILLER_37_217
*1319 FILLER_37_223
*1320 FILLER_37_225
*1321 FILLER_37_237
*1322 FILLER_37_249
*1323 FILLER_37_261
*1324 FILLER_37_27
*1325 FILLER_37_273
*1326 FILLER_37_279
*1327 FILLER_37_281
*1328 FILLER_37_293
*1329 FILLER_37_3
*1330 FILLER_37_305
*1331 FILLER_37_317
*1332 FILLER_37_329
*1333 FILLER_37_335
*1334 FILLER_37_337
*1335 FILLER_37_349
*1336 FILLER_37_361
*1337 FILLER_37_367
*1338 FILLER_37_39
*1339 FILLER_37_51
*1340 FILLER_37_55
*1341 FILLER_37_57
*1342 FILLER_37_69
*1343 FILLER_37_81
*1344 FILLER_37_93
*1345 FILLER_38_109
*1346 FILLER_38_121
*1347 FILLER_38_133
*1348 FILLER_38_139
*1349 FILLER_38_141
*1350 FILLER_38_15
*1351 FILLER_38_153
*1352 FILLER_38_165
*1353 FILLER_38_177
*1354 FILLER_38_189
*1355 FILLER_38_195
*1356 FILLER_38_197
*1357 FILLER_38_209
*1358 FILLER_38_221
*1359 FILLER_38_233
*1360 FILLER_38_245
*1361 FILLER_38_251
*1362 FILLER_38_253
*1363 FILLER_38_265
*1364 FILLER_38_27
*1365 FILLER_38_277
*1366 FILLER_38_289
*1367 FILLER_38_29
*1368 FILLER_38_3
*1369 FILLER_38_301
*1370 FILLER_38_307
*1371 FILLER_38_309
*1372 FILLER_38_321
*1373 FILLER_38_333
*1374 FILLER_38_345
*1375 FILLER_38_357
*1376 FILLER_38_363
*1377 FILLER_38_365
*1378 FILLER_38_41
*1379 FILLER_38_53
*1380 FILLER_38_65
*1381 FILLER_38_77
*1382 FILLER_38_83
*1383 FILLER_38_85
*1384 FILLER_38_97
*1385 FILLER_39_105
*1386 FILLER_39_111
*1387 FILLER_39_113
*1388 FILLER_39_125
*1389 FILLER_39_137
*1390 FILLER_39_149
*1391 FILLER_39_15
*1392 FILLER_39_161
*1393 FILLER_39_167
*1394 FILLER_39_169
*1395 FILLER_39_181
*1396 FILLER_39_193
*1397 FILLER_39_205
*1398 FILLER_39_217
*1399 FILLER_39_223
*1400 FILLER_39_225
*1401 FILLER_39_237
*1402 FILLER_39_249
*1403 FILLER_39_261
*1404 FILLER_39_27
*1405 FILLER_39_273
*1406 FILLER_39_279
*1407 FILLER_39_281
*1408 FILLER_39_293
*1409 FILLER_39_3
*1410 FILLER_39_305
*1411 FILLER_39_317
*1412 FILLER_39_329
*1413 FILLER_39_335
*1414 FILLER_39_337
*1415 FILLER_39_349
*1416 FILLER_39_361
*1417 FILLER_39_367
*1418 FILLER_39_39
*1419 FILLER_39_51
*1420 FILLER_39_55
*1421 FILLER_39_57
*1422 FILLER_39_69
*1423 FILLER_39_81
*1424 FILLER_39_93
*1425 FILLER_3_107
*1426 FILLER_3_111
*1427 FILLER_3_113
*1428 FILLER_3_125
*1429 FILLER_3_137
*1430 FILLER_3_149
*1431 FILLER_3_161
*1432 FILLER_3_167
*1433 FILLER_3_169
*1434 FILLER_3_181
*1435 FILLER_3_193
*1436 FILLER_3_205
*1437 FILLER_3_217
*1438 FILLER_3_223
*1439 FILLER_3_225
*1440 FILLER_3_237
*1441 FILLER_3_249
*1442 FILLER_3_25
*1443 FILLER_3_261
*1444 FILLER_3_273
*1445 FILLER_3_279
*1446 FILLER_3_281
*1447 FILLER_3_293
*1448 FILLER_3_3
*1449 FILLER_3_305
*1450 FILLER_3_317
*1451 FILLER_3_329
*1452 FILLER_3_335
*1453 FILLER_3_337
*1454 FILLER_3_349
*1455 FILLER_3_361
*1456 FILLER_3_367
*1457 FILLER_3_45
*1458 FILLER_3_53
*1459 FILLER_3_57
*1460 FILLER_3_85
*1461 FILLER_3_95
*1462 FILLER_40_109
*1463 FILLER_40_121
*1464 FILLER_40_133
*1465 FILLER_40_139
*1466 FILLER_40_141
*1467 FILLER_40_15
*1468 FILLER_40_153
*1469 FILLER_40_165
*1470 FILLER_40_177
*1471 FILLER_40_189
*1472 FILLER_40_195
*1473 FILLER_40_197
*1474 FILLER_40_209
*1475 FILLER_40_221
*1476 FILLER_40_233
*1477 FILLER_40_245
*1478 FILLER_40_251
*1479 FILLER_40_253
*1480 FILLER_40_265
*1481 FILLER_40_27
*1482 FILLER_40_277
*1483 FILLER_40_289
*1484 FILLER_40_29
*1485 FILLER_40_3
*1486 FILLER_40_301
*1487 FILLER_40_307
*1488 FILLER_40_309
*1489 FILLER_40_321
*1490 FILLER_40_333
*1491 FILLER_40_345
*1492 FILLER_40_357
*1493 FILLER_40_363
*1494 FILLER_40_365
*1495 FILLER_40_41
*1496 FILLER_40_53
*1497 FILLER_40_65
*1498 FILLER_40_77
*1499 FILLER_40_83
*1500 FILLER_40_85
*1501 FILLER_40_97
*1502 FILLER_41_105
*1503 FILLER_41_111
*1504 FILLER_41_113
*1505 FILLER_41_125
*1506 FILLER_41_137
*1507 FILLER_41_149
*1508 FILLER_41_15
*1509 FILLER_41_161
*1510 FILLER_41_167
*1511 FILLER_41_169
*1512 FILLER_41_181
*1513 FILLER_41_193
*1514 FILLER_41_205
*1515 FILLER_41_217
*1516 FILLER_41_223
*1517 FILLER_41_225
*1518 FILLER_41_237
*1519 FILLER_41_249
*1520 FILLER_41_261
*1521 FILLER_41_27
*1522 FILLER_41_273
*1523 FILLER_41_279
*1524 FILLER_41_281
*1525 FILLER_41_293
*1526 FILLER_41_3
*1527 FILLER_41_305
*1528 FILLER_41_317
*1529 FILLER_41_329
*1530 FILLER_41_335
*1531 FILLER_41_337
*1532 FILLER_41_349
*1533 FILLER_41_361
*1534 FILLER_41_367
*1535 FILLER_41_39
*1536 FILLER_41_51
*1537 FILLER_41_55
*1538 FILLER_41_57
*1539 FILLER_41_69
*1540 FILLER_41_81
*1541 FILLER_41_93
*1542 FILLER_42_109
*1543 FILLER_42_121
*1544 FILLER_42_133
*1545 FILLER_42_139
*1546 FILLER_42_141
*1547 FILLER_42_15
*1548 FILLER_42_153
*1549 FILLER_42_165
*1550 FILLER_42_177
*1551 FILLER_42_189
*1552 FILLER_42_195
*1553 FILLER_42_197
*1554 FILLER_42_209
*1555 FILLER_42_221
*1556 FILLER_42_233
*1557 FILLER_42_245
*1558 FILLER_42_251
*1559 FILLER_42_253
*1560 FILLER_42_265
*1561 FILLER_42_27
*1562 FILLER_42_277
*1563 FILLER_42_289
*1564 FILLER_42_29
*1565 FILLER_42_3
*1566 FILLER_42_301
*1567 FILLER_42_307
*1568 FILLER_42_309
*1569 FILLER_42_321
*1570 FILLER_42_333
*1571 FILLER_42_345
*1572 FILLER_42_357
*1573 FILLER_42_363
*1574 FILLER_42_365
*1575 FILLER_42_41
*1576 FILLER_42_53
*1577 FILLER_42_65
*1578 FILLER_42_77
*1579 FILLER_42_83
*1580 FILLER_42_85
*1581 FILLER_42_97
*1582 FILLER_43_105
*1583 FILLER_43_111
*1584 FILLER_43_113
*1585 FILLER_43_125
*1586 FILLER_43_137
*1587 FILLER_43_149
*1588 FILLER_43_15
*1589 FILLER_43_161
*1590 FILLER_43_167
*1591 FILLER_43_169
*1592 FILLER_43_181
*1593 FILLER_43_193
*1594 FILLER_43_205
*1595 FILLER_43_217
*1596 FILLER_43_223
*1597 FILLER_43_225
*1598 FILLER_43_237
*1599 FILLER_43_249
*1600 FILLER_43_261
*1601 FILLER_43_27
*1602 FILLER_43_273
*1603 FILLER_43_279
*1604 FILLER_43_281
*1605 FILLER_43_293
*1606 FILLER_43_3
*1607 FILLER_43_305
*1608 FILLER_43_317